[TITLE]
;;Project Title/Notes

[OPTIONS]
;;Option             Value
FLOW_UNITS           CMS
INFILTRATION         GREEN_AMPT
FLOW_ROUTING         DYNWAVE
LINK_OFFSETS         DEPTH
MIN_SLOPE            0
ALLOW_PONDING        NO
SKIP_STEADY_STATE    NO

START_DATE           01/01/2018
START_TIME           00:00:00
REPORT_START_DATE    01/01/2018
REPORT_START_TIME    00:00:00
END_DATE             01/01/2019
END_TIME             01:00:00
SWEEP_START          01/01
SWEEP_END            12/31
DRY_DAYS             0
REPORT_STEP          00:01:00
WET_STEP             00:01:00
DRY_STEP             00:01:00
ROUTING_STEP         0:00:30 
RULE_STEP            00:00:00

INERTIAL_DAMPING     PARTIAL
NORMAL_FLOW_LIMITED  BOTH
FORCE_MAIN_EQUATION  H-W
VARIABLE_STEP        0.75
LENGTHENING_STEP     0
MIN_SURFAREA         1.167
MAX_TRIALS           8
HEAD_TOLERANCE       0.0015
SYS_FLOW_TOL         5
LAT_FLOW_TOL         5
MINIMUM_STEP         0.5
THREADS              1

[EVAPORATION]
;;Data Source    Parameters
;;-------------- ----------------
CONSTANT         0.0
DRY_ONLY         NO

[RAINGAGES]
;;Name           Format    Interval SCF      Source    
;;-------------- --------- ------ ------ ----------
Gage1            VOLUME    0:01     1.0      TIMESERIES Rainfall        

[SUBCATCHMENTS]
;;Name           Rain Gage        Outlet           Area     %Imperv  Width    %Slope   CurbLen  SnowPack        
;;-------------- ---------------- ---------------- -------- -------- -------- -------- -------- ----------------
W1               Gage1            J1               3.89     1.33     20.33    8.7      0                        
W2               Gage1            J3               7.29     2.68     40.06    7.8      0                        
W3               Gage1            J7               7        1.88     35.46    10.4     0                        
W4               Gage1            J8               8.65     1.5      45.73    12       0                        
W5               Gage1            J12              6.89     0.79     35.3     11.8     0                        
W6               Gage1            J13              4.44     1.44     27.41    10.5     0                        
W7               Gage1            J15              8.26     1.98     59.61    14.7     0                        
W8               Gage1            J16              2.43     1.01     22.55    5.9      0                        
W9               Gage1            J26              10.63    2.8      66.51    11.1     0                        
W10              Gage1            J24              8.65     2.8      56.99    10.1     0                        
W11              Gage1            J27              6.75     0.8      58.1     16.9     0                        
W12              Gage1            J21              4.39     1.86     44.65    8        0                        
W13              Gage1            J41              0.84     0.33     15.66    1.2      0                        
W14              Gage1            J37              4.46     2.07     43.94    10.9     0                        
W15              Gage1            W16              7.32     1.18     49.96    13.5     0                        
W16              Gage1            J47              3.87     1.88     56.03    7.6      0                        
W17              Gage1            J56              1.18     0.46     28.1     5.3      0                        
W18              Gage1            J61              6.27     2.25     74.61    13.3     0                        
W19              Gage1            J40              5.8      0.08     68.29    9.9      0                        
W20              Gage1            J33              5.27     0.9      43.89    14.7     0                        
W21              Gage1            W22              8.46     1.98     45.33    8.8      0                        
W22              Gage1            W25              8.55     3.56     50.91    7.9      0                        
W23              Gage1            J32              6.24     2.54     47.27    14       0                        
W24              Gage1            W25              4.02     1.69     28.61    10.4     0                        
W25              Gage1            W4               9.39     1.39     47.38    6.7      0                        
W26              Gage1            J52              1.43     0.57     29.54    14.5     0                        
W27              Gage1            J85              0.92     0.47     38.26    5.8      0                        
W28              Gage1            J68              0.6      0.31     402.91   0        0                        
W29              Gage1            J91              1.02     0.48     1387.76  0        0                        
W30              Gage1            J58              3.92     1.8      183.19   1.3      0                        
W31              Gage1            J95              0.4      0.2      48.39    0        0                        
W32              Gage1            J97              0.52     0.24     57.41    0        0                        
W33              Gage1            J69              16.79    6.38     141.06   10.6     0                        
W34              Gage1            J73              4.46     2.26     84.03    16.9     0                        
W35              Gage1            J78              13.08    3.45     145.78   6.5      0                        

[SUBAREAS]
;;Subcatchment   N-Imperv   N-Perv     S-Imperv   S-Perv     PctZero    RouteTo    PctRouted 
;;-------------- ---------- ---------- ---------- ---------- ---------- ---------- ----------
W1               0.01       0.1        1.27       2.54       25         OUTLET    
W2               0.01       0.1        1.27       2.54       25         OUTLET    
W3               0.01       0.1        1.27       2.54       25         OUTLET    
W4               0.01       0.1        1.27       2.54       25         OUTLET    
W5               0.01       0.1        1.27       2.54       25         OUTLET    
W6               0.01       0.1        1.27       2.54       25         OUTLET    
W7               0.01       0.1        1.27       2.54       25         OUTLET    
W8               0.01       0.1        1.27       2.54       25         OUTLET    
W9               0.01       0.1        1.27       2.54       25         OUTLET    
W10              0.01       0.1        1.27       2.54       25         OUTLET    
W11              0.01       0.1        1.27       2.54       25         OUTLET    
W12              0.01       0.1        1.27       2.54       25         OUTLET    
W13              0.01       0.1        1.27       2.54       25         OUTLET    
W14              0.01       0.1        1.27       2.54       25         OUTLET    
W15              0.01       0.1        1.27       2.54       25         OUTLET    
W16              0.01       0.1        1.27       2.54       25         OUTLET    
W17              0.01       0.1        1.27       2.54       25         OUTLET    
W18              0.01       0.1        1.27       2.54       25         OUTLET    
W19              0.01       0.1        1.27       2.54       25         OUTLET    
W20              0.01       0.1        1.27       2.54       25         OUTLET    
W21              0.01       0.1        1.27       2.54       25         OUTLET    
W22              0.01       0.1        1.27       2.54       25         OUTLET    
W23              0.01       0.1        1.27       2.54       25         OUTLET    
W24              0.01       0.1        1.27       2.54       25         OUTLET    
W25              0.01       0.1        1.27       2.54       25         OUTLET    
W26              0.01       0.1        1.27       2.54       25         OUTLET    
W27              0.01       0.1        1.27       2.54       25         OUTLET    
W28              0.01       0.1        1.27       2.54       25         OUTLET    
W29              0.01       0.1        1.27       2.54       25         OUTLET    
W30              0.01       0.1        1.27       2.54       25         OUTLET    
W31              0.01       0.1        1.27       2.54       25         OUTLET    
W32              0.01       0.1        1.27       2.54       25         OUTLET    
W33              0.01       0.1        1.27       2.54       25         OUTLET    
W34              0.01       0.1        1.27       2.54       25         OUTLET    
W35              0.01       0.1        1.27       2.54       25         OUTLET    

[INFILTRATION]
;;Subcatchment   Param1     Param2     Param3     Param4     Param5    
;;-------------- ---------- ---------- ---------- ---------- ----------
W1               3.0        0.5        4          7          0          HORTON
W2               3.0        0.5        4          7          0          HORTON
W3               3.0        0.5        4          7          0          HORTON
W4               3.0        0.5        4          7          0          HORTON
W5               3.0        0.5        4          7          0          HORTON
W6               3.0        0.5        4          7          0          HORTON
W7               3.0        0.5        4          7          0          HORTON
W8               3.0        0.5        4          7          0          HORTON
W9               3.0        0.5        4          7          0          HORTON
W10              3.0        0.5        4          7          0          HORTON
W11              3.0        0.5        4          7          0          HORTON
W12              3.0        0.5        4          7          0          HORTON
W13              3.0        0.5        4          7          0          HORTON
W14              3.0        0.5        4          7          0          HORTON
W15              3.0        0.5        4          7          0          HORTON
W16              3.0        0.5        4          7          0          HORTON
W17              3.0        0.5        4          7          0          HORTON
W18              3.0        0.5        4          7          0          HORTON
W19              3.0        0.5        4          7          0          HORTON
W20              3.0        0.5        4          7          0          HORTON
W21              3.0        0.5        4          7          0          HORTON
W22              3.0        0.5        4          7          0          HORTON
W23              3.0        0.5        4          7          0          HORTON
W24              3.0        0.5        4          7          0          HORTON
W25              3.0        0.5        4          7          0          HORTON
W26              3.0        0.5        4          7          0          HORTON
W27              3.0        0.5        4          7          0          HORTON
W28              3.0        0.5        4          7          0          HORTON
W29              3.0        0.5        4          7          0          HORTON
W30              3.0        0.5        4          7          0          HORTON
W31              3.0        0.5        4          7          0          HORTON
W32              3.0        0.5        4          7          0          HORTON
W33              3.0        0.5        4          7          0          HORTON
W34              3.0        0.5        4          7          0          HORTON
W35              3.0        0.5        4          7          0          HORTON

[JUNCTIONS]
;;Name           Elevation  MaxDepth   InitDepth  SurDepth   Aponded   
;;-------------- ---------- ---------- ---------- ---------- ----------
J1               48.953     4.5        0          0          0         
J2               47.530     2.5        0          0          0         
J3               44.601     1          0          0          0         
J4               39.914     2.2        0          0          0         
J5               40.065     2.5        0          0          0         
J6               40.125     0.8        0          0          0         
J7               43.863     1.5        0          0          0         
J8               48.966     2          0          0          0         
J9               45.473     1.5        0          0          0         
J10              36.876     1.3        0          0          0         
J11              34.049     1          0          0          0         
J12              31.98      1          0          0          0         
J13              33.415     1.5        0          0          0         
J14              31.885     3.6        0          0          0         
J15              26.934     0.9        0          0          0         
J16              25.510     1.3        0          0          0         
J17              22.341     2          0          0          0         
J18              20.069     2.2        0          0          0         
J19              21.341     3          0          0          0         
J20              21.641     2.7        0          0          0         
J21              21.839     0.6        0          0          0         
J22              22.283     2.5        0          0          0         
J23              23.283     1.5        0          0          0         
J24              26.559     4          0          0          0         
J25              27.059     3.5        0          0          0         
J26              27.233     1.5        0          0          0         
J27              19.869     2.4        0          0          0         
J28              15.018     1.2        0          0          0         
J29              15.218     1          0          0          0         
J30              16.520     1.5        0          0          0         
J31              17.407     1.5        0          0          0         
J32              17.209     1.5        0          0          0         
J33              19.787     2          0          0          0         
J34              11.794     1.2        0          0          0         
J35              11.494     1.5        0          0          0         
J36              11.794     1.2        0          0          0         
J37              12.085     1.5        0          0          0         
J38              11.219     2.5        0          0          0         
J39              12.806     1.8        0          0          0         
J40              13.106     1.5        0          0          0         
J41              9.747      1          0          0          0         
J42              6.247      4.5        0          0          0         
J43              9.747      1          0          0          0         
J44              6.436      2.3        0          0          0         
J45              6.450      1.7        0          0          0         
J46              6.650      1.5        0          0          0         
J47              6.799      0.3        0          0          0         
J48              6.136      2.6        0          0          0         
J49              5.953      4.2        0          0          0         
J50              5.653      4.5        0          0          0         
J51              8.153      2          0          0          0         
J52              8.653      1.5        0          0          0         
J53              5.687      2          0          0          0         
J54              5.787      1.9        0          0          0         
J55              5.827      1.86       0          0          0         
J56              5.835      0.31       0          0          0         
J57              5.845      0.3        0          0          0         
J58              5.948      0.3        0          0          0         
J59              7.989      1          0          0          0         
J60              11.128     2.5        0          0          0         
J61              11.628     2          0          0          0         
J62              5.564      1.8        0          0          0         
J63              5.364      2          0          0          0         
J64              4.645      1          0          0          0         
J65              2.511      1          0          0          0         
J66              2.111      1.4        0          0          0         
J67              2.711      0.8        0          0          0         
J68              2.148      0.3        0          0          0         
J69              32.483     0          0          0          0         
J70              25.905     0          0          0          0         
J71              25.902     0          0          0          0         
J72              15.819     0          0          0          0         
J73              15.789     0          0          0          0         
J74              8.419      0          0          0          0         
J75              8.412      0          0          0          0         
J76              8.406      0          0          0          0         
J77              6.181      0          0          0          0         
J78              6.175      0          0          0          0         
J79              6.169      0          0          0          0         
J80              3.153      0.4        0          0          0         
J81              3.254      0.3        0          0          0         
J82              4.845      0.8        0          0          0         
J83              3.042      0.5        0          0          0         
J84              3.254      0.3        0          0          0         
J85              4.845      0.8        0          0          0         
J86              1.724      0.3        0          0          0         
J87              1.922      0.3        0          0          0         
J88              1.674      0.35       0          0          0         
J89              0.524      1.5        0          0          0         
J90              0.792      0.4        0          0          0         
J91              0.892      0.3        0          0          0         
J92              0.842      0.35       0          0          0         
J93              0.892      0.3        0          0          0         
J94              1.669      0.8        0          0          0         
J95              2.069      0.4        0          0          0         
J96              2.069      0.4        0          0          0         
J97              2.169      0.3        0          0          0         
J98              0.417      0.5        0          0          0         
J99              0.317      0.6        0          0          0         

[OUTFALLS]
;;Name           Elevation  Type       Stage Data       Gated    Route To        
;;-------------- ---------- ---------- ---------------- -------- ----------------
O1               0.217      TIMESERIES Tidal_2018       YES                      

[CONDUITS]
;;Name           From Node        To Node          Length     Roughness  InOffset   OutOffset  InitFlow   MaxFlow   
;;-------------- ---------------- ---------------- ---------- ---------- ---------- ---------- ---------- ----------
C1               J1               J2               104        0.013      0          0          0          0         
C2               J2               J3               72         0.013      0          0          0          0         
C3               J3               J4               70         0.013      0          0          0          0         
C4               J4               J10              64         0.013      0          0          0          0         
C5               J7               J6               59         0.011      0          0          0          0         
C6               J6               J5               58         0.011      0          0          0          0         
C7               J5               J4               76         0.011      0          0          0          0         
C8               J8               J9               101        0.011      0          0          0          0         
C9               J9               J10              103        0.011      0          0          0          0         
C10              J10              J11              80         0.013      0          0          0          0         
C11              J11              J12              76         0.013      0          0          0          0         
C12              J13              J12              94         0.011      0          0          0          0         
C13              J12              J14              84         0.013      0          0          0          0         
C14              J14              J15              92         0.013      0          0          0          0         
C15              J15              J16              82         0.013      0          0          0          0         
C16              J16              J17              88         0.013      0          0          0          0         
C17              J26              J25              74         0.011      0          0          0          0         
C18              J25              J24              70         0.011      0          0          0          0         
C19              J24              J23              35         0.011      0          0          0          0         
C20              J23              J22              49         0.011      0          0          0          0         
C21              J22              J21              50         0.011      0          0          0          0         
C22              J21              J20              52         0.011      0          0          0          0         
C23              J20              J19              45         0.011      0          0          0          0         
C24              J19              J18              40         0.011      0          0          0          0         
C25              J17              J18              59         0.013      0          0          0          0         
C26              J18              J27              39         0.013      0          0          0          0         
C27              J27              J28              56         0.013      0          0          0          0         
C28              J33              J32              66         0.011      0          0          0          0         
C29              J32              J31              59         0.011      0          0          0          0         
C30              J31              J30              67         0.011      0          0          0          0         
C31              J30              J29              74         0.011      0          0          0          0         
C32              J29              J28              51         0.011      0          0          0          0         
C33              J28              J34              49         0.013      0          0          0          0         
C34              J34              J35              36         0.013      0          0          0          0         
C35              J37              J36              58         0.011      0          0          0          0         
C36              J36              J35              51         0.011      0          0          0          0         
C37              J35              J38              55         0.013      0          0          0          0         
C38              J40              J39              36         0.011      0          0          0          0         
C39              J39              J38              65         0.011      0          0          0          0         
C40              J38              J41              65         0.013      0          0          0          0         
C41              J41              J42              44         0.013      0          0          0          0         
C42              J43              J42              16         0.011      0          0          0          0         
C43              J47              J46              45         0.011      0          0          0          0         
C44              J46              J45              41         0.011      0          0          0          0         
C45              J45              J44              51         0.011      0          0          0          0         
C46              J44              J42              33         0.011      0          0          0          0         
C47              J42              J48              51         0.013      0          0          0          0         
C48              J48              J49              49         0.013      0          0          0          0         
C49              J49              J50              44         0.013      0          0          0          0         
C50              J61              J60              70         0.011      0          0          0          0         
C51              J60              J59              71         0.011      0          0          0          0         
C52              J59              J57              68         0.011      0          0          0          0         
C53              J58              J57              67         0.011      0          0          0          0         
C54              J57              J56              47         0.011      0          0          0          0         
C55              J56              J55              29         0.011      0          0          0          0         
C56              J55              J54              30         0.011      0          0          0          0         
C57              J54              J53              28         0.011      0          0          0          0         
C58              J53              J50              28         0.011      0          0          0          0         
C59              J52              J51              26         0.011      0          0          0          0         
C60              J51              J50              25         0.011      0          0          0          0         
C61              J50              J62              47         0.013      0          0          0          0         
C62              J62              J63              52         0.013      0          0          0          0         
C63              J63              J64              47         0.013      0          0          0          0         
C64              J64              J65              53         0.013      0          0          0          0         
C65              J65              J66              59         0.013      0          0          0          0         
C66              J69              J70              65         0.05       0          0          0          0         
C67              J70              J71              41         0.05       0          0          0          0         
C68              J71              J72              36         0.05       0          0          0          0         
C69              J72              J73              38         0.05       0          0          0          0         
C70              J73              J74              49         0.05       0          0          0          0         
C71              J74              J75              44         0.05       0          0          0          0         
C72              J75              J76              40         0.05       0          0          0          0         
C73              J76              J77              37         0.05       0          0          0          0         
C74              J77              J78              29         0.05       0          0          0          0         
C75              J78              J79              56         0.05       0          0          0          0         
C76              J79              J80              61         0.05       0          0          0          0         
C77              J82              J81              50         0.011      0          0          0          0         
C78              J81              J80              45         0.011      0          0          0          0         
C79              J80              J83              16         0.05       0          0          0          0         
C80              J85              J84              41         0.011      0          0          0          0         
C81              J84              J83              38         0.011      0          0          0          0         
C82              J83              J66              54         0.05       0          0          0          0         
C83              J67              J66              28         0.011      0          0          0          0         
C84              J68              J66              42         0.011      0          0          0          0         
C85              J66              J86              55         0.05       0          0          0          0         
C86              J87              J86              42         0.011      0          0          0          0         
C87              J86              J88              45         0.05       0          0          0          0         
C88              J88              J89              25         0.05       0          0          0          0         
C89              J97              J96              43         0.011      0          0          0          0         
C90              J96              J94              49         0.011      0          0          0          0         
C91              J95              J94              32         0.011      0          0          0          0         