# File generated by Flopy version 3.9.1 on 09/02/2025 at 12:04:44.
BEGIN options
END options

BEGIN continuous  FILEOUT  outputs/drn_obs.csv
  millcreek0  drn  1 70 62
  millcreek1  drn  1 70 61
  millcreek2  drn  1 71 60
  millcreek3  drn  1 72 59
  millcreek4  drn  1 72 58
  millcreek5  drn  1 73 57
  millcreek6  drn  1 74 56
  millcreek7  drn  1 74 55
END continuous  FILEOUT  outputs/drn_obs.csv

