# File generated by Flopy version 3.9.1 on 09/02/2025 at 12:04:44.
BEGIN options
END options

BEGIN continuous  FILEOUT  outputs/GHB_obs.csv
  ghb0  ghb  1 18 27
  ghb1  ghb  1 19 27
  ghb2  ghb  1 20 27
  ghb3  ghb  1 20 26
  ghb4  ghb  1 20 25
  ghb5  ghb  1 21 27
  ghb6  ghb  1 21 26
  ghb7  ghb  1 21 25
  ghb8  ghb  1 21 24
  ghb9  ghb  1 22 27
  ghb10  ghb  1 22 26
  ghb11  ghb  1 22 25
  ghb12  ghb  1 22 24
  ghb13  ghb  1 22 23
  ghb14  ghb  1 23 27
  ghb15  ghb  1 23 26
  ghb16  ghb  1 23 25
  ghb17  ghb  1 23 24
  ghb18  ghb  1 23 23
  ghb19  ghb  1 24 26
  ghb20  ghb  1 24 25
  ghb21  ghb  1 24 24
  ghb22  ghb  1 24 23
  ghb23  ghb  1 24 22
  ghb24  ghb  1 25 24
  ghb25  ghb  1 25 23
  ghb26  ghb  1 25 22
  ghb27  ghb  1 25 21
  ghb28  ghb  1 26 23
  ghb29  ghb  1 26 22
  ghb30  ghb  1 26 21
  ghb31  ghb  1 26 20
  ghb32  ghb  1 27 23
  ghb33  ghb  1 27 22
  ghb34  ghb  1 27 21
  ghb35  ghb  1 27 20
  ghb36  ghb  1 27 19
  ghb37  ghb  1 27 18
  ghb38  ghb  1 28 23
  ghb39  ghb  1 28 22
  ghb40  ghb  1 28 20
  ghb41  ghb  1 28 19
  ghb42  ghb  1 28 18
  ghb43  ghb  1 28 17
  ghb44  ghb  1 28 16
  ghb45  ghb  1 28 15
  ghb46  ghb  1 28 14
  ghb47  ghb  1 29 18
  ghb48  ghb  1 29 17
  ghb49  ghb  1 29 16
  ghb50  ghb  1 29 15
  ghb51  ghb  1 29 14
  ghb52  ghb  1 29 13
  ghb53  ghb  1 29 12
  ghb54  ghb  1 30 18
  ghb55  ghb  1 30 17
  ghb56  ghb  1 30 16
  ghb57  ghb  1 30 15
  ghb58  ghb  1 30 14
  ghb59  ghb  1 30 13
  ghb60  ghb  1 30 12
  ghb61  ghb  1 30 11
  ghb62  ghb  1 31 18
  ghb63  ghb  1 31 17
  ghb64  ghb  1 31 16
  ghb65  ghb  1 31 15
  ghb66  ghb  1 31 14
  ghb67  ghb  1 31 13
  ghb68  ghb  1 31 12
  ghb69  ghb  1 31 11
  ghb70  ghb  1 31 10
  ghb71  ghb  1 31 9
  ghb72  ghb  1 31 8
  ghb73  ghb  1 32 18
  ghb74  ghb  1 32 17
  ghb75  ghb  1 32 16
  ghb76  ghb  1 32 15
  ghb77  ghb  1 32 14
  ghb78  ghb  1 32 13
  ghb79  ghb  1 32 12
  ghb80  ghb  1 32 11
  ghb81  ghb  1 32 10
  ghb82  ghb  1 32 9
  ghb83  ghb  1 32 8
  ghb84  ghb  1 32 7
  ghb85  ghb  1 33 18
  ghb86  ghb  1 33 17
  ghb87  ghb  1 33 16
  ghb88  ghb  1 33 15
  ghb89  ghb  1 33 14
  ghb90  ghb  1 33 13
  ghb91  ghb  1 33 12
  ghb92  ghb  1 33 11
  ghb93  ghb  1 33 10
  ghb94  ghb  1 33 9
  ghb95  ghb  1 33 8
  ghb96  ghb  1 33 7
  ghb97  ghb  1 34 18
  ghb98  ghb  1 34 17
  ghb99  ghb  1 34 16
  ghb100  ghb  1 34 15
  ghb101  ghb  1 34 14
  ghb102  ghb  1 34 13
  ghb103  ghb  1 34 12
  ghb104  ghb  1 34 11
  ghb105  ghb  1 34 10
  ghb106  ghb  1 34 9
  ghb107  ghb  1 34 8
  ghb108  ghb  1 34 7
  ghb109  ghb  1 35 18
  ghb110  ghb  1 35 17
  ghb111  ghb  1 35 16
  ghb112  ghb  1 35 15
  ghb113  ghb  1 35 14
  ghb114  ghb  1 35 13
  ghb115  ghb  1 35 12
  ghb116  ghb  1 35 11
  ghb117  ghb  1 35 10
  ghb118  ghb  1 35 9
  ghb119  ghb  1 35 8
  ghb120  ghb  1 35 7
  ghb121  ghb  1 36 18
  ghb122  ghb  1 36 17
  ghb123  ghb  1 36 16
  ghb124  ghb  1 36 15
  ghb125  ghb  1 36 14
  ghb126  ghb  1 36 13
  ghb127  ghb  1 36 12
  ghb128  ghb  1 36 11
  ghb129  ghb  1 36 10
  ghb130  ghb  1 36 9
  ghb131  ghb  1 36 8
  ghb132  ghb  1 36 7
  ghb133  ghb  1 37 18
  ghb134  ghb  1 37 17
  ghb135  ghb  1 37 16
  ghb136  ghb  1 37 15
  ghb137  ghb  1 37 14
  ghb138  ghb  1 37 13
  ghb139  ghb  1 37 12
  ghb140  ghb  1 37 11
  ghb141  ghb  1 37 10
  ghb142  ghb  1 37 9
  ghb143  ghb  1 37 8
  ghb144  ghb  1 37 7
  ghb145  ghb  1 38 18
  ghb146  ghb  1 38 17
  ghb147  ghb  1 38 16
  ghb148  ghb  1 38 15
  ghb149  ghb  1 38 14
  ghb150  ghb  1 38 13
  ghb151  ghb  1 38 12
  ghb152  ghb  1 38 11
  ghb153  ghb  1 38 10
  ghb154  ghb  1 38 9
  ghb155  ghb  1 38 8
  ghb156  ghb  1 38 7
  ghb157  ghb  1 39 18
  ghb158  ghb  1 39 17
  ghb159  ghb  1 39 16
  ghb160  ghb  1 39 15
  ghb161  ghb  1 39 14
  ghb162  ghb  1 39 13
  ghb163  ghb  1 39 12
  ghb164  ghb  1 39 11
  ghb165  ghb  1 39 10
  ghb166  ghb  1 39 9
  ghb167  ghb  1 39 8
  ghb168  ghb  1 39 7
  ghb169  ghb  1 40 18
  ghb170  ghb  1 40 17
  ghb171  ghb  1 40 16
  ghb172  ghb  1 40 15
  ghb173  ghb  1 40 14
  ghb174  ghb  1 40 13
  ghb175  ghb  1 40 12
  ghb176  ghb  1 40 11
  ghb177  ghb  1 40 10
  ghb178  ghb  1 40 9
  ghb179  ghb  1 40 8
  ghb180  ghb  1 40 7
  ghb181  ghb  1 41 17
  ghb182  ghb  1 41 16
  ghb183  ghb  1 41 15
  ghb184  ghb  1 41 14
  ghb185  ghb  1 41 13
  ghb186  ghb  1 41 12
  ghb187  ghb  1 41 11
  ghb188  ghb  1 41 10
  ghb189  ghb  1 41 8
  ghb190  ghb  1 41 7
  ghb191  ghb  1 42 37
  ghb192  ghb  1 42 16
  ghb193  ghb  1 42 15
  ghb194  ghb  1 42 14
  ghb195  ghb  1 42 13
  ghb196  ghb  1 42 12
  ghb197  ghb  1 42 11
  ghb198  ghb  1 43 37
  ghb199  ghb  1 43 36
  ghb200  ghb  1 43 15
  ghb201  ghb  1 43 14
  ghb202  ghb  1 43 13
  ghb203  ghb  1 44 37
  ghb204  ghb  1 44 36
  ghb205  ghb  1 44 35
  ghb206  ghb  1 44 34
  ghb207  ghb  1 44 22
  ghb208  ghb  1 44 21
  ghb209  ghb  1 44 20
  ghb210  ghb  1 44 14
  ghb211  ghb  1 44 13
  ghb212  ghb  1 45 37
  ghb213  ghb  1 45 36
  ghb214  ghb  1 45 35
  ghb215  ghb  1 45 34
  ghb216  ghb  1 45 33
  ghb217  ghb  1 45 23
  ghb218  ghb  1 45 22
  ghb219  ghb  1 45 21
  ghb220  ghb  1 45 20
  ghb221  ghb  1 45 13
  ghb222  ghb  1 46 36
  ghb223  ghb  1 46 35
  ghb224  ghb  1 46 34
  ghb225  ghb  1 46 23
  ghb226  ghb  1 46 22
  ghb227  ghb  1 46 21
  ghb228  ghb  1 46 20
  ghb229  ghb  1 46 13
  ghb230  ghb  1 47 36
  ghb231  ghb  1 47 35
  ghb232  ghb  1 47 34
  ghb233  ghb  1 47 24
  ghb234  ghb  1 47 23
  ghb235  ghb  1 47 22
  ghb236  ghb  1 47 21
  ghb237  ghb  1 47 20
  ghb238  ghb  1 47 19
  ghb239  ghb  1 47 13
  ghb240  ghb  1 48 36
  ghb241  ghb  1 48 35
  ghb242  ghb  1 48 34
  ghb243  ghb  1 48 24
  ghb244  ghb  1 48 23
  ghb245  ghb  1 48 22
  ghb246  ghb  1 48 21
  ghb247  ghb  1 48 20
  ghb248  ghb  1 48 19
  ghb249  ghb  1 48 13
  ghb250  ghb  1 49 36
  ghb251  ghb  1 49 35
  ghb252  ghb  1 49 34
  ghb253  ghb  1 49 33
  ghb254  ghb  1 49 25
  ghb255  ghb  1 49 24
  ghb256  ghb  1 49 23
  ghb257  ghb  1 49 22
  ghb258  ghb  1 49 21
  ghb259  ghb  1 49 20
  ghb260  ghb  1 49 19
  ghb261  ghb  1 49 13
  ghb262  ghb  1 50 36
  ghb263  ghb  1 50 35
  ghb264  ghb  1 50 34
  ghb265  ghb  1 50 33
  ghb266  ghb  1 50 24
  ghb267  ghb  1 50 23
  ghb268  ghb  1 50 22
  ghb269  ghb  1 50 21
  ghb270  ghb  1 50 20
  ghb271  ghb  1 50 19
  ghb272  ghb  1 50 13
  ghb273  ghb  1 51 36
  ghb274  ghb  1 51 35
  ghb275  ghb  1 51 34
  ghb276  ghb  1 51 33
  ghb277  ghb  1 51 32
  ghb278  ghb  1 51 31
  ghb279  ghb  1 51 24
  ghb280  ghb  1 51 23
  ghb281  ghb  1 51 22
  ghb282  ghb  1 51 21
  ghb283  ghb  1 51 20
  ghb284  ghb  1 52 36
  ghb285  ghb  1 52 35
  ghb286  ghb  1 52 34
  ghb287  ghb  1 52 33
  ghb288  ghb  1 52 32
  ghb289  ghb  1 52 31
  ghb290  ghb  1 52 30
  ghb291  ghb  1 52 29
  ghb292  ghb  1 52 28
  ghb293  ghb  1 52 27
  ghb294  ghb  1 52 26
  ghb295  ghb  1 52 25
  ghb296  ghb  1 52 24
  ghb297  ghb  1 52 23
  ghb298  ghb  1 52 22
  ghb299  ghb  1 52 21
  ghb300  ghb  1 53 37
  ghb301  ghb  1 53 36
  ghb302  ghb  1 53 35
  ghb303  ghb  1 53 34
  ghb304  ghb  1 53 33
  ghb305  ghb  1 53 32
  ghb306  ghb  1 53 31
  ghb307  ghb  1 53 30
  ghb308  ghb  1 53 29
  ghb309  ghb  1 53 28
  ghb310  ghb  1 53 27
  ghb311  ghb  1 53 26
  ghb312  ghb  1 53 25
  ghb313  ghb  1 53 24
  ghb314  ghb  1 54 37
  ghb315  ghb  1 54 36
  ghb316  ghb  1 54 35
  ghb317  ghb  1 54 34
  ghb318  ghb  1 54 33
  ghb319  ghb  1 54 32
  ghb320  ghb  1 54 31
  ghb321  ghb  1 54 30
  ghb322  ghb  1 54 29
  ghb323  ghb  1 54 28
  ghb324  ghb  1 54 27
  ghb325  ghb  1 54 26
  ghb326  ghb  1 54 25
  ghb327  ghb  1 55 38
  ghb328  ghb  1 55 37
  ghb329  ghb  1 55 31
  ghb330  ghb  1 55 30
  ghb331  ghb  1 55 29
  ghb332  ghb  1 55 28
  ghb333  ghb  1 55 27
  ghb334  ghb  1 55 26
  ghb335  ghb  1 55 25
  ghb336  ghb  1 56 30
  ghb337  ghb  1 56 29
  ghb338  ghb  1 56 28
  ghb339  ghb  1 56 27
  ghb340  ghb  1 56 26
  ghb341  ghb  1 56 25
  ghb342  ghb  1 57 28
  ghb343  ghb  1 57 27
  ghb344  ghb  1 57 26
  ghb345  ghb  1 57 25
  ghb346  ghb  1 58 28
  ghb347  ghb  1 58 27
  ghb348  ghb  1 58 26
  ghb349  ghb  1 59 28
  ghb350  ghb  1 59 27
  ghb351  ghb  1 60 28
  ghb352  ghb  1 60 27
  ghb353  ghb  1 61 28
END continuous  FILEOUT  outputs/GHB_obs.csv

