# File generated by Flopy version 3.9.1 on 09/02/2025 at 12:04:44.
BEGIN options
  LIST  gwf.list
  PRINT_INPUT
  SAVE_FLOWS
  NEWTON  UNDER_RELAXATION
END options

BEGIN packages
  ghb6  gwf.ghb  ghb
  drn6  gwf.drn  drn
  chd6  gwf_0.chd  chd_coast
  chd6  gwf.chd  chd_perimeter
  dis6  gwf.dis  dis
  ic6  gwf.ic  ic
  npf6  gwf.npf  npf
  sto6  gwf.sto  sto
  rch6  gwf.rcha  rcha_0
  wel6  gwf.wel  wel_0
  oc6  gwf.oc  oc
  obs6  gwf.obs  hd_obs
  buy6  gwf.buy  buy
END packages

