# File generated by Flopy version 3.9.1 on 09/02/2025 at 12:04:44.
BEGIN options
  auxiliary  salinity
  OBS6  FILEIN  gwf.ghb.obs
END options

BEGIN dimensions
  MAXBOUND  354
END dimensions

BEGIN period  1
    OPEN/CLOSE  'external/ghb.dat'
END period  1

