# File generated by Flopy version 3.9.1 on 08/26/2025 at 17:04:13.
BEGIN options
END options

BEGIN continuous  FILEOUT  outputs/hd_obs.csv
  OBS_0_L0  head  1 61 71
  OBS_0_L1  head  2 61 71
  OBS_0_L2  head  3 61 71
  OBS_0_L3  head  4 61 71
  OBS_0_L4  head  5 61 71
  OBS_0_L5  head  6 61 71
  OBS_0_L6  head  7 61 71
  OBS_0_L7  head  8 61 71
  OBS_0_L8  head  9 61 71
  OBS_0_L9  head  10 61 71
  OBS_0_L10  head  11 61 71
  OBS_0_L11  head  12 61 71
  OBS_0_L12  head  13 61 71
  OBS_0_L13  head  14 61 71
  OBS_0_L14  head  15 61 71
  OBS_0_L15  head  16 61 71
  OBS_0_L16  head  17 61 71
  OBS_0_L17  head  18 61 71
  OBS_0_L18  head  19 61 71
  OBS_0_L19  head  20 61 71
  OBS_1_L0  head  1 61 70
  OBS_1_L1  head  2 61 70
  OBS_1_L2  head  3 61 70
  OBS_1_L3  head  4 61 70
  OBS_1_L4  head  5 61 70
  OBS_1_L5  head  6 61 70
  OBS_1_L6  head  7 61 70
  OBS_1_L7  head  8 61 70
  OBS_1_L8  head  9 61 70
  OBS_1_L9  head  10 61 70
  OBS_1_L10  head  11 61 70
  OBS_1_L11  head  12 61 70
  OBS_1_L12  head  13 61 70
  OBS_1_L13  head  14 61 70
  OBS_1_L14  head  15 61 70
  OBS_1_L15  head  16 61 70
  OBS_1_L16  head  17 61 70
  OBS_1_L17  head  18 61 70
  OBS_1_L18  head  19 61 70
  OBS_1_L19  head  20 61 70
  OBS_2_L0  head  1 61 69
  OBS_2_L1  head  2 61 69
  OBS_2_L2  head  3 61 69
  OBS_2_L3  head  4 61 69
  OBS_2_L4  head  5 61 69
  OBS_2_L5  head  6 61 69
  OBS_2_L6  head  7 61 69
  OBS_2_L7  head  8 61 69
  OBS_2_L8  head  9 61 69
  OBS_2_L9  head  10 61 69
  OBS_2_L10  head  11 61 69
  OBS_2_L11  head  12 61 69
  OBS_2_L12  head  13 61 69
  OBS_2_L13  head  14 61 69
  OBS_2_L14  head  15 61 69
  OBS_2_L15  head  16 61 69
  OBS_2_L16  head  17 61 69
  OBS_2_L17  head  18 61 69
  OBS_2_L18  head  19 61 69
  OBS_2_L19  head  20 61 69
  OBS_3_L0  head  1 61 68
  OBS_3_L1  head  2 61 68
  OBS_3_L2  head  3 61 68
  OBS_3_L3  head  4 61 68
  OBS_3_L4  head  5 61 68
  OBS_3_L5  head  6 61 68
  OBS_3_L6  head  7 61 68
  OBS_3_L7  head  8 61 68
  OBS_3_L8  head  9 61 68
  OBS_3_L9  head  10 61 68
  OBS_3_L10  head  11 61 68
  OBS_3_L11  head  12 61 68
  OBS_3_L12  head  13 61 68
  OBS_3_L13  head  14 61 68
  OBS_3_L14  head  15 61 68
  OBS_3_L15  head  16 61 68
  OBS_3_L16  head  17 61 68
  OBS_3_L17  head  18 61 68
  OBS_3_L18  head  19 61 68
  OBS_3_L19  head  20 61 68
  OBS_4_L0  head  1 61 67
  OBS_4_L1  head  2 61 67
  OBS_4_L2  head  3 61 67
  OBS_4_L3  head  4 61 67
  OBS_4_L4  head  5 61 67
  OBS_4_L5  head  6 61 67
  OBS_4_L6  head  7 61 67
  OBS_4_L7  head  8 61 67
  OBS_4_L8  head  9 61 67
  OBS_4_L9  head  10 61 67
  OBS_4_L10  head  11 61 67
  OBS_4_L11  head  12 61 67
  OBS_4_L12  head  13 61 67
  OBS_4_L13  head  14 61 67
  OBS_4_L14  head  15 61 67
  OBS_4_L15  head  16 61 67
  OBS_4_L16  head  17 61 67
  OBS_4_L17  head  18 61 67
  OBS_4_L18  head  19 61 67
  OBS_4_L19  head  20 61 67
  OBS_5_L0  head  1 61 66
  OBS_5_L1  head  2 61 66
  OBS_5_L2  head  3 61 66
  OBS_5_L3  head  4 61 66
  OBS_5_L4  head  5 61 66
  OBS_5_L5  head  6 61 66
  OBS_5_L6  head  7 61 66
  OBS_5_L7  head  8 61 66
  OBS_5_L8  head  9 61 66
  OBS_5_L9  head  10 61 66
  OBS_5_L10  head  11 61 66
  OBS_5_L11  head  12 61 66
  OBS_5_L12  head  13 61 66
  OBS_5_L13  head  14 61 66
  OBS_5_L14  head  15 61 66
  OBS_5_L15  head  16 61 66
  OBS_5_L16  head  17 61 66
  OBS_5_L17  head  18 61 66
  OBS_5_L18  head  19 61 66
  OBS_5_L19  head  20 61 66
  OBS_6_L0  head  1 61 65
  OBS_6_L1  head  2 61 65
  OBS_6_L2  head  3 61 65
  OBS_6_L3  head  4 61 65
  OBS_6_L4  head  5 61 65
  OBS_6_L5  head  6 61 65
  OBS_6_L6  head  7 61 65
  OBS_6_L7  head  8 61 65
  OBS_6_L8  head  9 61 65
  OBS_6_L9  head  10 61 65
  OBS_6_L10  head  11 61 65
  OBS_6_L11  head  12 61 65
  OBS_6_L12  head  13 61 65
  OBS_6_L13  head  14 61 65
  OBS_6_L14  head  15 61 65
  OBS_6_L15  head  16 61 65
  OBS_6_L16  head  17 61 65
  OBS_6_L17  head  18 61 65
  OBS_6_L18  head  19 61 65
  OBS_6_L19  head  20 61 65
  OBS_7_L0  head  1 61 64
  OBS_7_L1  head  2 61 64
  OBS_7_L2  head  3 61 64
  OBS_7_L3  head  4 61 64
  OBS_7_L4  head  5 61 64
  OBS_7_L5  head  6 61 64
  OBS_7_L6  head  7 61 64
  OBS_7_L7  head  8 61 64
  OBS_7_L8  head  9 61 64
  OBS_7_L9  head  10 61 64
  OBS_7_L10  head  11 61 64
  OBS_7_L11  head  12 61 64
  OBS_7_L12  head  13 61 64
  OBS_7_L13  head  14 61 64
  OBS_7_L14  head  15 61 64
  OBS_7_L15  head  16 61 64
  OBS_7_L16  head  17 61 64
  OBS_7_L17  head  18 61 64
  OBS_7_L18  head  19 61 64
  OBS_7_L19  head  20 61 64
  OBS_8_L0  head  1 61 63
  OBS_8_L1  head  2 61 63
  OBS_8_L2  head  3 61 63
  OBS_8_L3  head  4 61 63
  OBS_8_L4  head  5 61 63
  OBS_8_L5  head  6 61 63
  OBS_8_L6  head  7 61 63
  OBS_8_L7  head  8 61 63
  OBS_8_L8  head  9 61 63
  OBS_8_L9  head  10 61 63
  OBS_8_L10  head  11 61 63
  OBS_8_L11  head  12 61 63
  OBS_8_L12  head  13 61 63
  OBS_8_L13  head  14 61 63
  OBS_8_L14  head  15 61 63
  OBS_8_L15  head  16 61 63
  OBS_8_L16  head  17 61 63
  OBS_8_L17  head  18 61 63
  OBS_8_L18  head  19 61 63
  OBS_8_L19  head  20 61 63
  OBS_9_L0  head  1 61 62
  OBS_9_L1  head  2 61 62
  OBS_9_L2  head  3 61 62
  OBS_9_L3  head  4 61 62
  OBS_9_L4  head  5 61 62
  OBS_9_L5  head  6 61 62
  OBS_9_L6  head  7 61 62
  OBS_9_L7  head  8 61 62
  OBS_9_L8  head  9 61 62
  OBS_9_L9  head  10 61 62
  OBS_9_L10  head  11 61 62
  OBS_9_L11  head  12 61 62
  OBS_9_L12  head  13 61 62
  OBS_9_L13  head  14 61 62
  OBS_9_L14  head  15 61 62
  OBS_9_L15  head  16 61 62
  OBS_9_L16  head  17 61 62
  OBS_9_L17  head  18 61 62
  OBS_9_L18  head  19 61 62
  OBS_9_L19  head  20 61 62
  OBS_10_L0  head  1 61 61
  OBS_10_L1  head  2 61 61
  OBS_10_L2  head  3 61 61
  OBS_10_L3  head  4 61 61
  OBS_10_L4  head  5 61 61
  OBS_10_L5  head  6 61 61
  OBS_10_L6  head  7 61 61
  OBS_10_L7  head  8 61 61
  OBS_10_L8  head  9 61 61
  OBS_10_L9  head  10 61 61
  OBS_10_L10  head  11 61 61
  OBS_10_L11  head  12 61 61
  OBS_10_L12  head  13 61 61
  OBS_10_L13  head  14 61 61
  OBS_10_L14  head  15 61 61
  OBS_10_L15  head  16 61 61
  OBS_10_L16  head  17 61 61
  OBS_10_L17  head  18 61 61
  OBS_10_L18  head  19 61 61
  OBS_10_L19  head  20 61 61
  OBS_11_L0  head  1 61 60
  OBS_11_L1  head  2 61 60
  OBS_11_L2  head  3 61 60
  OBS_11_L3  head  4 61 60
  OBS_11_L4  head  5 61 60
  OBS_11_L5  head  6 61 60
  OBS_11_L6  head  7 61 60
  OBS_11_L7  head  8 61 60
  OBS_11_L8  head  9 61 60
  OBS_11_L9  head  10 61 60
  OBS_11_L10  head  11 61 60
  OBS_11_L11  head  12 61 60
  OBS_11_L12  head  13 61 60
  OBS_11_L13  head  14 61 60
  OBS_11_L14  head  15 61 60
  OBS_11_L15  head  16 61 60
  OBS_11_L16  head  17 61 60
  OBS_11_L17  head  18 61 60
  OBS_11_L18  head  19 61 60
  OBS_11_L19  head  20 61 60
  OBS_12_L0  head  1 61 59
  OBS_12_L1  head  2 61 59
  OBS_12_L2  head  3 61 59
  OBS_12_L3  head  4 61 59
  OBS_12_L4  head  5 61 59
  OBS_12_L5  head  6 61 59
  OBS_12_L6  head  7 61 59
  OBS_12_L7  head  8 61 59
  OBS_12_L8  head  9 61 59
  OBS_12_L9  head  10 61 59
  OBS_12_L10  head  11 61 59
  OBS_12_L11  head  12 61 59
  OBS_12_L12  head  13 61 59
  OBS_12_L13  head  14 61 59
  OBS_12_L14  head  15 61 59
  OBS_12_L15  head  16 61 59
  OBS_12_L16  head  17 61 59
  OBS_12_L17  head  18 61 59
  OBS_12_L18  head  19 61 59
  OBS_12_L19  head  20 61 59
  OBS_13_L0  head  1 61 58
  OBS_13_L1  head  2 61 58
  OBS_13_L2  head  3 61 58
  OBS_13_L3  head  4 61 58
  OBS_13_L4  head  5 61 58
  OBS_13_L5  head  6 61 58
  OBS_13_L6  head  7 61 58
  OBS_13_L7  head  8 61 58
  OBS_13_L8  head  9 61 58
  OBS_13_L9  head  10 61 58
  OBS_13_L10  head  11 61 58
  OBS_13_L11  head  12 61 58
  OBS_13_L12  head  13 61 58
  OBS_13_L13  head  14 61 58
  OBS_13_L14  head  15 61 58
  OBS_13_L15  head  16 61 58
  OBS_13_L16  head  17 61 58
  OBS_13_L17  head  18 61 58
  OBS_13_L18  head  19 61 58
  OBS_13_L19  head  20 61 58
  OBS_14_L0  head  1 61 57
  OBS_14_L1  head  2 61 57
  OBS_14_L2  head  3 61 57
  OBS_14_L3  head  4 61 57
  OBS_14_L4  head  5 61 57
  OBS_14_L5  head  6 61 57
  OBS_14_L6  head  7 61 57
  OBS_14_L7  head  8 61 57
  OBS_14_L8  head  9 61 57
  OBS_14_L9  head  10 61 57
  OBS_14_L10  head  11 61 57
  OBS_14_L11  head  12 61 57
  OBS_14_L12  head  13 61 57
  OBS_14_L13  head  14 61 57
  OBS_14_L14  head  15 61 57
  OBS_14_L15  head  16 61 57
  OBS_14_L16  head  17 61 57
  OBS_14_L17  head  18 61 57
  OBS_14_L18  head  19 61 57
  OBS_14_L19  head  20 61 57
  OBS_15_L0  head  1 61 56
  OBS_15_L1  head  2 61 56
  OBS_15_L2  head  3 61 56
  OBS_15_L3  head  4 61 56
  OBS_15_L4  head  5 61 56
  OBS_15_L5  head  6 61 56
  OBS_15_L6  head  7 61 56
  OBS_15_L7  head  8 61 56
  OBS_15_L8  head  9 61 56
  OBS_15_L9  head  10 61 56
  OBS_15_L10  head  11 61 56
  OBS_15_L11  head  12 61 56
  OBS_15_L12  head  13 61 56
  OBS_15_L13  head  14 61 56
  OBS_15_L14  head  15 61 56
  OBS_15_L15  head  16 61 56
  OBS_15_L16  head  17 61 56
  OBS_15_L17  head  18 61 56
  OBS_15_L18  head  19 61 56
  OBS_15_L19  head  20 61 56
  OBS_16_L0  head  1 62 71
  OBS_16_L1  head  2 62 71
  OBS_16_L2  head  3 62 71
  OBS_16_L3  head  4 62 71
  OBS_16_L4  head  5 62 71
  OBS_16_L5  head  6 62 71
  OBS_16_L6  head  7 62 71
  OBS_16_L7  head  8 62 71
  OBS_16_L8  head  9 62 71
  OBS_16_L9  head  10 62 71
  OBS_16_L10  head  11 62 71
  OBS_16_L11  head  12 62 71
  OBS_16_L12  head  13 62 71
  OBS_16_L13  head  14 62 71
  OBS_16_L14  head  15 62 71
  OBS_16_L15  head  16 62 71
  OBS_16_L16  head  17 62 71
  OBS_16_L17  head  18 62 71
  OBS_16_L18  head  19 62 71
  OBS_16_L19  head  20 62 71
  OBS_17_L0  head  1 62 70
  OBS_17_L1  head  2 62 70
  OBS_17_L2  head  3 62 70
  OBS_17_L3  head  4 62 70
  OBS_17_L4  head  5 62 70
  OBS_17_L5  head  6 62 70
  OBS_17_L6  head  7 62 70
  OBS_17_L7  head  8 62 70
  OBS_17_L8  head  9 62 70
  OBS_17_L9  head  10 62 70
  OBS_17_L10  head  11 62 70
  OBS_17_L11  head  12 62 70
  OBS_17_L12  head  13 62 70
  OBS_17_L13  head  14 62 70
  OBS_17_L14  head  15 62 70
  OBS_17_L15  head  16 62 70
  OBS_17_L16  head  17 62 70
  OBS_17_L17  head  18 62 70
  OBS_17_L18  head  19 62 70
  OBS_17_L19  head  20 62 70
  OBS_18_L0  head  1 62 69
  OBS_18_L1  head  2 62 69
  OBS_18_L2  head  3 62 69
  OBS_18_L3  head  4 62 69
  OBS_18_L4  head  5 62 69
  OBS_18_L5  head  6 62 69
  OBS_18_L6  head  7 62 69
  OBS_18_L7  head  8 62 69
  OBS_18_L8  head  9 62 69
  OBS_18_L9  head  10 62 69
  OBS_18_L10  head  11 62 69
  OBS_18_L11  head  12 62 69
  OBS_18_L12  head  13 62 69
  OBS_18_L13  head  14 62 69
  OBS_18_L14  head  15 62 69
  OBS_18_L15  head  16 62 69
  OBS_18_L16  head  17 62 69
  OBS_18_L17  head  18 62 69
  OBS_18_L18  head  19 62 69
  OBS_18_L19  head  20 62 69
  OBS_19_L0  head  1 62 68
  OBS_19_L1  head  2 62 68
  OBS_19_L2  head  3 62 68
  OBS_19_L3  head  4 62 68
  OBS_19_L4  head  5 62 68
  OBS_19_L5  head  6 62 68
  OBS_19_L6  head  7 62 68
  OBS_19_L7  head  8 62 68
  OBS_19_L8  head  9 62 68
  OBS_19_L9  head  10 62 68
  OBS_19_L10  head  11 62 68
  OBS_19_L11  head  12 62 68
  OBS_19_L12  head  13 62 68
  OBS_19_L13  head  14 62 68
  OBS_19_L14  head  15 62 68
  OBS_19_L15  head  16 62 68
  OBS_19_L16  head  17 62 68
  OBS_19_L17  head  18 62 68
  OBS_19_L18  head  19 62 68
  OBS_19_L19  head  20 62 68
  OBS_20_L0  head  1 62 67
  OBS_20_L1  head  2 62 67
  OBS_20_L2  head  3 62 67
  OBS_20_L3  head  4 62 67
  OBS_20_L4  head  5 62 67
  OBS_20_L5  head  6 62 67
  OBS_20_L6  head  7 62 67
  OBS_20_L7  head  8 62 67
  OBS_20_L8  head  9 62 67
  OBS_20_L9  head  10 62 67
  OBS_20_L10  head  11 62 67
  OBS_20_L11  head  12 62 67
  OBS_20_L12  head  13 62 67
  OBS_20_L13  head  14 62 67
  OBS_20_L14  head  15 62 67
  OBS_20_L15  head  16 62 67
  OBS_20_L16  head  17 62 67
  OBS_20_L17  head  18 62 67
  OBS_20_L18  head  19 62 67
  OBS_20_L19  head  20 62 67
  OBS_21_L0  head  1 62 66
  OBS_21_L1  head  2 62 66
  OBS_21_L2  head  3 62 66
  OBS_21_L3  head  4 62 66
  OBS_21_L4  head  5 62 66
  OBS_21_L5  head  6 62 66
  OBS_21_L6  head  7 62 66
  OBS_21_L7  head  8 62 66
  OBS_21_L8  head  9 62 66
  OBS_21_L9  head  10 62 66
  OBS_21_L10  head  11 62 66
  OBS_21_L11  head  12 62 66
  OBS_21_L12  head  13 62 66
  OBS_21_L13  head  14 62 66
  OBS_21_L14  head  15 62 66
  OBS_21_L15  head  16 62 66
  OBS_21_L16  head  17 62 66
  OBS_21_L17  head  18 62 66
  OBS_21_L18  head  19 62 66
  OBS_21_L19  head  20 62 66
  OBS_22_L0  head  1 62 65
  OBS_22_L1  head  2 62 65
  OBS_22_L2  head  3 62 65
  OBS_22_L3  head  4 62 65
  OBS_22_L4  head  5 62 65
  OBS_22_L5  head  6 62 65
  OBS_22_L6  head  7 62 65
  OBS_22_L7  head  8 62 65
  OBS_22_L8  head  9 62 65
  OBS_22_L9  head  10 62 65
  OBS_22_L10  head  11 62 65
  OBS_22_L11  head  12 62 65
  OBS_22_L12  head  13 62 65
  OBS_22_L13  head  14 62 65
  OBS_22_L14  head  15 62 65
  OBS_22_L15  head  16 62 65
  OBS_22_L16  head  17 62 65
  OBS_22_L17  head  18 62 65
  OBS_22_L18  head  19 62 65
  OBS_22_L19  head  20 62 65
  OBS_23_L0  head  1 62 64
  OBS_23_L1  head  2 62 64
  OBS_23_L2  head  3 62 64
  OBS_23_L3  head  4 62 64
  OBS_23_L4  head  5 62 64
  OBS_23_L5  head  6 62 64
  OBS_23_L6  head  7 62 64
  OBS_23_L7  head  8 62 64
  OBS_23_L8  head  9 62 64
  OBS_23_L9  head  10 62 64
  OBS_23_L10  head  11 62 64
  OBS_23_L11  head  12 62 64
  OBS_23_L12  head  13 62 64
  OBS_23_L13  head  14 62 64
  OBS_23_L14  head  15 62 64
  OBS_23_L15  head  16 62 64
  OBS_23_L16  head  17 62 64
  OBS_23_L17  head  18 62 64
  OBS_23_L18  head  19 62 64
  OBS_23_L19  head  20 62 64
  OBS_24_L0  head  1 62 63
  OBS_24_L1  head  2 62 63
  OBS_24_L2  head  3 62 63
  OBS_24_L3  head  4 62 63
  OBS_24_L4  head  5 62 63
  OBS_24_L5  head  6 62 63
  OBS_24_L6  head  7 62 63
  OBS_24_L7  head  8 62 63
  OBS_24_L8  head  9 62 63
  OBS_24_L9  head  10 62 63
  OBS_24_L10  head  11 62 63
  OBS_24_L11  head  12 62 63
  OBS_24_L12  head  13 62 63
  OBS_24_L13  head  14 62 63
  OBS_24_L14  head  15 62 63
  OBS_24_L15  head  16 62 63
  OBS_24_L16  head  17 62 63
  OBS_24_L17  head  18 62 63
  OBS_24_L18  head  19 62 63
  OBS_24_L19  head  20 62 63
  OBS_25_L0  head  1 62 62
  OBS_25_L1  head  2 62 62
  OBS_25_L2  head  3 62 62
  OBS_25_L3  head  4 62 62
  OBS_25_L4  head  5 62 62
  OBS_25_L5  head  6 62 62
  OBS_25_L6  head  7 62 62
  OBS_25_L7  head  8 62 62
  OBS_25_L8  head  9 62 62
  OBS_25_L9  head  10 62 62
  OBS_25_L10  head  11 62 62
  OBS_25_L11  head  12 62 62
  OBS_25_L12  head  13 62 62
  OBS_25_L13  head  14 62 62
  OBS_25_L14  head  15 62 62
  OBS_25_L15  head  16 62 62
  OBS_25_L16  head  17 62 62
  OBS_25_L17  head  18 62 62
  OBS_25_L18  head  19 62 62
  OBS_25_L19  head  20 62 62
  OBS_26_L0  head  1 62 61
  OBS_26_L1  head  2 62 61
  OBS_26_L2  head  3 62 61
  OBS_26_L3  head  4 62 61
  OBS_26_L4  head  5 62 61
  OBS_26_L5  head  6 62 61
  OBS_26_L6  head  7 62 61
  OBS_26_L7  head  8 62 61
  OBS_26_L8  head  9 62 61
  OBS_26_L9  head  10 62 61
  OBS_26_L10  head  11 62 61
  OBS_26_L11  head  12 62 61
  OBS_26_L12  head  13 62 61
  OBS_26_L13  head  14 62 61
  OBS_26_L14  head  15 62 61
  OBS_26_L15  head  16 62 61
  OBS_26_L16  head  17 62 61
  OBS_26_L17  head  18 62 61
  OBS_26_L18  head  19 62 61
  OBS_26_L19  head  20 62 61
  OBS_27_L0  head  1 62 60
  OBS_27_L1  head  2 62 60
  OBS_27_L2  head  3 62 60
  OBS_27_L3  head  4 62 60
  OBS_27_L4  head  5 62 60
  OBS_27_L5  head  6 62 60
  OBS_27_L6  head  7 62 60
  OBS_27_L7  head  8 62 60
  OBS_27_L8  head  9 62 60
  OBS_27_L9  head  10 62 60
  OBS_27_L10  head  11 62 60
  OBS_27_L11  head  12 62 60
  OBS_27_L12  head  13 62 60
  OBS_27_L13  head  14 62 60
  OBS_27_L14  head  15 62 60
  OBS_27_L15  head  16 62 60
  OBS_27_L16  head  17 62 60
  OBS_27_L17  head  18 62 60
  OBS_27_L18  head  19 62 60
  OBS_27_L19  head  20 62 60
  OBS_28_L0  head  1 62 59
  OBS_28_L1  head  2 62 59
  OBS_28_L2  head  3 62 59
  OBS_28_L3  head  4 62 59
  OBS_28_L4  head  5 62 59
  OBS_28_L5  head  6 62 59
  OBS_28_L6  head  7 62 59
  OBS_28_L7  head  8 62 59
  OBS_28_L8  head  9 62 59
  OBS_28_L9  head  10 62 59
  OBS_28_L10  head  11 62 59
  OBS_28_L11  head  12 62 59
  OBS_28_L12  head  13 62 59
  OBS_28_L13  head  14 62 59
  OBS_28_L14  head  15 62 59
  OBS_28_L15  head  16 62 59
  OBS_28_L16  head  17 62 59
  OBS_28_L17  head  18 62 59
  OBS_28_L18  head  19 62 59
  OBS_28_L19  head  20 62 59
  OBS_29_L0  head  1 62 58
  OBS_29_L1  head  2 62 58
  OBS_29_L2  head  3 62 58
  OBS_29_L3  head  4 62 58
  OBS_29_L4  head  5 62 58
  OBS_29_L5  head  6 62 58
  OBS_29_L6  head  7 62 58
  OBS_29_L7  head  8 62 58
  OBS_29_L8  head  9 62 58
  OBS_29_L9  head  10 62 58
  OBS_29_L10  head  11 62 58
  OBS_29_L11  head  12 62 58
  OBS_29_L12  head  13 62 58
  OBS_29_L13  head  14 62 58
  OBS_29_L14  head  15 62 58
  OBS_29_L15  head  16 62 58
  OBS_29_L16  head  17 62 58
  OBS_29_L17  head  18 62 58
  OBS_29_L18  head  19 62 58
  OBS_29_L19  head  20 62 58
  OBS_30_L0  head  1 62 57
  OBS_30_L1  head  2 62 57
  OBS_30_L2  head  3 62 57
  OBS_30_L3  head  4 62 57
  OBS_30_L4  head  5 62 57
  OBS_30_L5  head  6 62 57
  OBS_30_L6  head  7 62 57
  OBS_30_L7  head  8 62 57
  OBS_30_L8  head  9 62 57
  OBS_30_L9  head  10 62 57
  OBS_30_L10  head  11 62 57
  OBS_30_L11  head  12 62 57
  OBS_30_L12  head  13 62 57
  OBS_30_L13  head  14 62 57
  OBS_30_L14  head  15 62 57
  OBS_30_L15  head  16 62 57
  OBS_30_L16  head  17 62 57
  OBS_30_L17  head  18 62 57
  OBS_30_L18  head  19 62 57
  OBS_30_L19  head  20 62 57
  OBS_31_L0  head  1 62 56
  OBS_31_L1  head  2 62 56
  OBS_31_L2  head  3 62 56
  OBS_31_L3  head  4 62 56
  OBS_31_L4  head  5 62 56
  OBS_31_L5  head  6 62 56
  OBS_31_L6  head  7 62 56
  OBS_31_L7  head  8 62 56
  OBS_31_L8  head  9 62 56
  OBS_31_L9  head  10 62 56
  OBS_31_L10  head  11 62 56
  OBS_31_L11  head  12 62 56
  OBS_31_L12  head  13 62 56
  OBS_31_L13  head  14 62 56
  OBS_31_L14  head  15 62 56
  OBS_31_L15  head  16 62 56
  OBS_31_L16  head  17 62 56
  OBS_31_L17  head  18 62 56
  OBS_31_L18  head  19 62 56
  OBS_31_L19  head  20 62 56
  OBS_32_L0  head  1 63 71
  OBS_32_L1  head  2 63 71
  OBS_32_L2  head  3 63 71
  OBS_32_L3  head  4 63 71
  OBS_32_L4  head  5 63 71
  OBS_32_L5  head  6 63 71
  OBS_32_L6  head  7 63 71
  OBS_32_L7  head  8 63 71
  OBS_32_L8  head  9 63 71
  OBS_32_L9  head  10 63 71
  OBS_32_L10  head  11 63 71
  OBS_32_L11  head  12 63 71
  OBS_32_L12  head  13 63 71
  OBS_32_L13  head  14 63 71
  OBS_32_L14  head  15 63 71
  OBS_32_L15  head  16 63 71
  OBS_32_L16  head  17 63 71
  OBS_32_L17  head  18 63 71
  OBS_32_L18  head  19 63 71
  OBS_32_L19  head  20 63 71
  OBS_33_L0  head  1 63 70
  OBS_33_L1  head  2 63 70
  OBS_33_L2  head  3 63 70
  OBS_33_L3  head  4 63 70
  OBS_33_L4  head  5 63 70
  OBS_33_L5  head  6 63 70
  OBS_33_L6  head  7 63 70
  OBS_33_L7  head  8 63 70
  OBS_33_L8  head  9 63 70
  OBS_33_L9  head  10 63 70
  OBS_33_L10  head  11 63 70
  OBS_33_L11  head  12 63 70
  OBS_33_L12  head  13 63 70
  OBS_33_L13  head  14 63 70
  OBS_33_L14  head  15 63 70
  OBS_33_L15  head  16 63 70
  OBS_33_L16  head  17 63 70
  OBS_33_L17  head  18 63 70
  OBS_33_L18  head  19 63 70
  OBS_33_L19  head  20 63 70
  OBS_34_L0  head  1 63 69
  OBS_34_L1  head  2 63 69
  OBS_34_L2  head  3 63 69
  OBS_34_L3  head  4 63 69
  OBS_34_L4  head  5 63 69
  OBS_34_L5  head  6 63 69
  OBS_34_L6  head  7 63 69
  OBS_34_L7  head  8 63 69
  OBS_34_L8  head  9 63 69
  OBS_34_L9  head  10 63 69
  OBS_34_L10  head  11 63 69
  OBS_34_L11  head  12 63 69
  OBS_34_L12  head  13 63 69
  OBS_34_L13  head  14 63 69
  OBS_34_L14  head  15 63 69
  OBS_34_L15  head  16 63 69
  OBS_34_L16  head  17 63 69
  OBS_34_L17  head  18 63 69
  OBS_34_L18  head  19 63 69
  OBS_34_L19  head  20 63 69
  OBS_35_L0  head  1 63 68
  OBS_35_L1  head  2 63 68
  OBS_35_L2  head  3 63 68
  OBS_35_L3  head  4 63 68
  OBS_35_L4  head  5 63 68
  OBS_35_L5  head  6 63 68
  OBS_35_L6  head  7 63 68
  OBS_35_L7  head  8 63 68
  OBS_35_L8  head  9 63 68
  OBS_35_L9  head  10 63 68
  OBS_35_L10  head  11 63 68
  OBS_35_L11  head  12 63 68
  OBS_35_L12  head  13 63 68
  OBS_35_L13  head  14 63 68
  OBS_35_L14  head  15 63 68
  OBS_35_L15  head  16 63 68
  OBS_35_L16  head  17 63 68
  OBS_35_L17  head  18 63 68
  OBS_35_L18  head  19 63 68
  OBS_35_L19  head  20 63 68
  OBS_36_L0  head  1 63 67
  OBS_36_L1  head  2 63 67
  OBS_36_L2  head  3 63 67
  OBS_36_L3  head  4 63 67
  OBS_36_L4  head  5 63 67
  OBS_36_L5  head  6 63 67
  OBS_36_L6  head  7 63 67
  OBS_36_L7  head  8 63 67
  OBS_36_L8  head  9 63 67
  OBS_36_L9  head  10 63 67
  OBS_36_L10  head  11 63 67
  OBS_36_L11  head  12 63 67
  OBS_36_L12  head  13 63 67
  OBS_36_L13  head  14 63 67
  OBS_36_L14  head  15 63 67
  OBS_36_L15  head  16 63 67
  OBS_36_L16  head  17 63 67
  OBS_36_L17  head  18 63 67
  OBS_36_L18  head  19 63 67
  OBS_36_L19  head  20 63 67
  OBS_37_L0  head  1 63 66
  OBS_37_L1  head  2 63 66
  OBS_37_L2  head  3 63 66
  OBS_37_L3  head  4 63 66
  OBS_37_L4  head  5 63 66
  OBS_37_L5  head  6 63 66
  OBS_37_L6  head  7 63 66
  OBS_37_L7  head  8 63 66
  OBS_37_L8  head  9 63 66
  OBS_37_L9  head  10 63 66
  OBS_37_L10  head  11 63 66
  OBS_37_L11  head  12 63 66
  OBS_37_L12  head  13 63 66
  OBS_37_L13  head  14 63 66
  OBS_37_L14  head  15 63 66
  OBS_37_L15  head  16 63 66
  OBS_37_L16  head  17 63 66
  OBS_37_L17  head  18 63 66
  OBS_37_L18  head  19 63 66
  OBS_37_L19  head  20 63 66
  OBS_38_L0  head  1 63 65
  OBS_38_L1  head  2 63 65
  OBS_38_L2  head  3 63 65
  OBS_38_L3  head  4 63 65
  OBS_38_L4  head  5 63 65
  OBS_38_L5  head  6 63 65
  OBS_38_L6  head  7 63 65
  OBS_38_L7  head  8 63 65
  OBS_38_L8  head  9 63 65
  OBS_38_L9  head  10 63 65
  OBS_38_L10  head  11 63 65
  OBS_38_L11  head  12 63 65
  OBS_38_L12  head  13 63 65
  OBS_38_L13  head  14 63 65
  OBS_38_L14  head  15 63 65
  OBS_38_L15  head  16 63 65
  OBS_38_L16  head  17 63 65
  OBS_38_L17  head  18 63 65
  OBS_38_L18  head  19 63 65
  OBS_38_L19  head  20 63 65
  OBS_39_L0  head  1 63 64
  OBS_39_L1  head  2 63 64
  OBS_39_L2  head  3 63 64
  OBS_39_L3  head  4 63 64
  OBS_39_L4  head  5 63 64
  OBS_39_L5  head  6 63 64
  OBS_39_L6  head  7 63 64
  OBS_39_L7  head  8 63 64
  OBS_39_L8  head  9 63 64
  OBS_39_L9  head  10 63 64
  OBS_39_L10  head  11 63 64
  OBS_39_L11  head  12 63 64
  OBS_39_L12  head  13 63 64
  OBS_39_L13  head  14 63 64
  OBS_39_L14  head  15 63 64
  OBS_39_L15  head  16 63 64
  OBS_39_L16  head  17 63 64
  OBS_39_L17  head  18 63 64
  OBS_39_L18  head  19 63 64
  OBS_39_L19  head  20 63 64
  OBS_40_L0  head  1 63 63
  OBS_40_L1  head  2 63 63
  OBS_40_L2  head  3 63 63
  OBS_40_L3  head  4 63 63
  OBS_40_L4  head  5 63 63
  OBS_40_L5  head  6 63 63
  OBS_40_L6  head  7 63 63
  OBS_40_L7  head  8 63 63
  OBS_40_L8  head  9 63 63
  OBS_40_L9  head  10 63 63
  OBS_40_L10  head  11 63 63
  OBS_40_L11  head  12 63 63
  OBS_40_L12  head  13 63 63
  OBS_40_L13  head  14 63 63
  OBS_40_L14  head  15 63 63
  OBS_40_L15  head  16 63 63
  OBS_40_L16  head  17 63 63
  OBS_40_L17  head  18 63 63
  OBS_40_L18  head  19 63 63
  OBS_40_L19  head  20 63 63
  OBS_41_L0  head  1 63 62
  OBS_41_L1  head  2 63 62
  OBS_41_L2  head  3 63 62
  OBS_41_L3  head  4 63 62
  OBS_41_L4  head  5 63 62
  OBS_41_L5  head  6 63 62
  OBS_41_L6  head  7 63 62
  OBS_41_L7  head  8 63 62
  OBS_41_L8  head  9 63 62
  OBS_41_L9  head  10 63 62
  OBS_41_L10  head  11 63 62
  OBS_41_L11  head  12 63 62
  OBS_41_L12  head  13 63 62
  OBS_41_L13  head  14 63 62
  OBS_41_L14  head  15 63 62
  OBS_41_L15  head  16 63 62
  OBS_41_L16  head  17 63 62
  OBS_41_L17  head  18 63 62
  OBS_41_L18  head  19 63 62
  OBS_41_L19  head  20 63 62
  OBS_42_L0  head  1 63 61
  OBS_42_L1  head  2 63 61
  OBS_42_L2  head  3 63 61
  OBS_42_L3  head  4 63 61
  OBS_42_L4  head  5 63 61
  OBS_42_L5  head  6 63 61
  OBS_42_L6  head  7 63 61
  OBS_42_L7  head  8 63 61
  OBS_42_L8  head  9 63 61
  OBS_42_L9  head  10 63 61
  OBS_42_L10  head  11 63 61
  OBS_42_L11  head  12 63 61
  OBS_42_L12  head  13 63 61
  OBS_42_L13  head  14 63 61
  OBS_42_L14  head  15 63 61
  OBS_42_L15  head  16 63 61
  OBS_42_L16  head  17 63 61
  OBS_42_L17  head  18 63 61
  OBS_42_L18  head  19 63 61
  OBS_42_L19  head  20 63 61
  OBS_43_L0  head  1 63 60
  OBS_43_L1  head  2 63 60
  OBS_43_L2  head  3 63 60
  OBS_43_L3  head  4 63 60
  OBS_43_L4  head  5 63 60
  OBS_43_L5  head  6 63 60
  OBS_43_L6  head  7 63 60
  OBS_43_L7  head  8 63 60
  OBS_43_L8  head  9 63 60
  OBS_43_L9  head  10 63 60
  OBS_43_L10  head  11 63 60
  OBS_43_L11  head  12 63 60
  OBS_43_L12  head  13 63 60
  OBS_43_L13  head  14 63 60
  OBS_43_L14  head  15 63 60
  OBS_43_L15  head  16 63 60
  OBS_43_L16  head  17 63 60
  OBS_43_L17  head  18 63 60
  OBS_43_L18  head  19 63 60
  OBS_43_L19  head  20 63 60
  OBS_44_L0  head  1 63 59
  OBS_44_L1  head  2 63 59
  OBS_44_L2  head  3 63 59
  OBS_44_L3  head  4 63 59
  OBS_44_L4  head  5 63 59
  OBS_44_L5  head  6 63 59
  OBS_44_L6  head  7 63 59
  OBS_44_L7  head  8 63 59
  OBS_44_L8  head  9 63 59
  OBS_44_L9  head  10 63 59
  OBS_44_L10  head  11 63 59
  OBS_44_L11  head  12 63 59
  OBS_44_L12  head  13 63 59
  OBS_44_L13  head  14 63 59
  OBS_44_L14  head  15 63 59
  OBS_44_L15  head  16 63 59
  OBS_44_L16  head  17 63 59
  OBS_44_L17  head  18 63 59
  OBS_44_L18  head  19 63 59
  OBS_44_L19  head  20 63 59
  OBS_45_L0  head  1 63 58
  OBS_45_L1  head  2 63 58
  OBS_45_L2  head  3 63 58
  OBS_45_L3  head  4 63 58
  OBS_45_L4  head  5 63 58
  OBS_45_L5  head  6 63 58
  OBS_45_L6  head  7 63 58
  OBS_45_L7  head  8 63 58
  OBS_45_L8  head  9 63 58
  OBS_45_L9  head  10 63 58
  OBS_45_L10  head  11 63 58
  OBS_45_L11  head  12 63 58
  OBS_45_L12  head  13 63 58
  OBS_45_L13  head  14 63 58
  OBS_45_L14  head  15 63 58
  OBS_45_L15  head  16 63 58
  OBS_45_L16  head  17 63 58
  OBS_45_L17  head  18 63 58
  OBS_45_L18  head  19 63 58
  OBS_45_L19  head  20 63 58
  OBS_46_L0  head  1 63 57
  OBS_46_L1  head  2 63 57
  OBS_46_L2  head  3 63 57
  OBS_46_L3  head  4 63 57
  OBS_46_L4  head  5 63 57
  OBS_46_L5  head  6 63 57
  OBS_46_L6  head  7 63 57
  OBS_46_L7  head  8 63 57
  OBS_46_L8  head  9 63 57
  OBS_46_L9  head  10 63 57
  OBS_46_L10  head  11 63 57
  OBS_46_L11  head  12 63 57
  OBS_46_L12  head  13 63 57
  OBS_46_L13  head  14 63 57
  OBS_46_L14  head  15 63 57
  OBS_46_L15  head  16 63 57
  OBS_46_L16  head  17 63 57
  OBS_46_L17  head  18 63 57
  OBS_46_L18  head  19 63 57
  OBS_46_L19  head  20 63 57
  OBS_47_L0  head  1 63 56
  OBS_47_L1  head  2 63 56
  OBS_47_L2  head  3 63 56
  OBS_47_L3  head  4 63 56
  OBS_47_L4  head  5 63 56
  OBS_47_L5  head  6 63 56
  OBS_47_L6  head  7 63 56
  OBS_47_L7  head  8 63 56
  OBS_47_L8  head  9 63 56
  OBS_47_L9  head  10 63 56
  OBS_47_L10  head  11 63 56
  OBS_47_L11  head  12 63 56
  OBS_47_L12  head  13 63 56
  OBS_47_L13  head  14 63 56
  OBS_47_L14  head  15 63 56
  OBS_47_L15  head  16 63 56
  OBS_47_L16  head  17 63 56
  OBS_47_L17  head  18 63 56
  OBS_47_L18  head  19 63 56
  OBS_47_L19  head  20 63 56
  OBS_48_L0  head  1 64 71
  OBS_48_L1  head  2 64 71
  OBS_48_L2  head  3 64 71
  OBS_48_L3  head  4 64 71
  OBS_48_L4  head  5 64 71
  OBS_48_L5  head  6 64 71
  OBS_48_L6  head  7 64 71
  OBS_48_L7  head  8 64 71
  OBS_48_L8  head  9 64 71
  OBS_48_L9  head  10 64 71
  OBS_48_L10  head  11 64 71
  OBS_48_L11  head  12 64 71
  OBS_48_L12  head  13 64 71
  OBS_48_L13  head  14 64 71
  OBS_48_L14  head  15 64 71
  OBS_48_L15  head  16 64 71
  OBS_48_L16  head  17 64 71
  OBS_48_L17  head  18 64 71
  OBS_48_L18  head  19 64 71
  OBS_48_L19  head  20 64 71
  OBS_49_L0  head  1 64 70
  OBS_49_L1  head  2 64 70
  OBS_49_L2  head  3 64 70
  OBS_49_L3  head  4 64 70
  OBS_49_L4  head  5 64 70
  OBS_49_L5  head  6 64 70
  OBS_49_L6  head  7 64 70
  OBS_49_L7  head  8 64 70
  OBS_49_L8  head  9 64 70
  OBS_49_L9  head  10 64 70
  OBS_49_L10  head  11 64 70
  OBS_49_L11  head  12 64 70
  OBS_49_L12  head  13 64 70
  OBS_49_L13  head  14 64 70
  OBS_49_L14  head  15 64 70
  OBS_49_L15  head  16 64 70
  OBS_49_L16  head  17 64 70
  OBS_49_L17  head  18 64 70
  OBS_49_L18  head  19 64 70
  OBS_49_L19  head  20 64 70
  OBS_50_L0  head  1 64 69
  OBS_50_L1  head  2 64 69
  OBS_50_L2  head  3 64 69
  OBS_50_L3  head  4 64 69
  OBS_50_L4  head  5 64 69
  OBS_50_L5  head  6 64 69
  OBS_50_L6  head  7 64 69
  OBS_50_L7  head  8 64 69
  OBS_50_L8  head  9 64 69
  OBS_50_L9  head  10 64 69
  OBS_50_L10  head  11 64 69
  OBS_50_L11  head  12 64 69
  OBS_50_L12  head  13 64 69
  OBS_50_L13  head  14 64 69
  OBS_50_L14  head  15 64 69
  OBS_50_L15  head  16 64 69
  OBS_50_L16  head  17 64 69
  OBS_50_L17  head  18 64 69
  OBS_50_L18  head  19 64 69
  OBS_50_L19  head  20 64 69
  OBS_51_L0  head  1 64 68
  OBS_51_L1  head  2 64 68
  OBS_51_L2  head  3 64 68
  OBS_51_L3  head  4 64 68
  OBS_51_L4  head  5 64 68
  OBS_51_L5  head  6 64 68
  OBS_51_L6  head  7 64 68
  OBS_51_L7  head  8 64 68
  OBS_51_L8  head  9 64 68
  OBS_51_L9  head  10 64 68
  OBS_51_L10  head  11 64 68
  OBS_51_L11  head  12 64 68
  OBS_51_L12  head  13 64 68
  OBS_51_L13  head  14 64 68
  OBS_51_L14  head  15 64 68
  OBS_51_L15  head  16 64 68
  OBS_51_L16  head  17 64 68
  OBS_51_L17  head  18 64 68
  OBS_51_L18  head  19 64 68
  OBS_51_L19  head  20 64 68
  OBS_52_L0  head  1 64 67
  OBS_52_L1  head  2 64 67
  OBS_52_L2  head  3 64 67
  OBS_52_L3  head  4 64 67
  OBS_52_L4  head  5 64 67
  OBS_52_L5  head  6 64 67
  OBS_52_L6  head  7 64 67
  OBS_52_L7  head  8 64 67
  OBS_52_L8  head  9 64 67
  OBS_52_L9  head  10 64 67
  OBS_52_L10  head  11 64 67
  OBS_52_L11  head  12 64 67
  OBS_52_L12  head  13 64 67
  OBS_52_L13  head  14 64 67
  OBS_52_L14  head  15 64 67
  OBS_52_L15  head  16 64 67
  OBS_52_L16  head  17 64 67
  OBS_52_L17  head  18 64 67
  OBS_52_L18  head  19 64 67
  OBS_52_L19  head  20 64 67
  OBS_53_L0  head  1 64 66
  OBS_53_L1  head  2 64 66
  OBS_53_L2  head  3 64 66
  OBS_53_L3  head  4 64 66
  OBS_53_L4  head  5 64 66
  OBS_53_L5  head  6 64 66
  OBS_53_L6  head  7 64 66
  OBS_53_L7  head  8 64 66
  OBS_53_L8  head  9 64 66
  OBS_53_L9  head  10 64 66
  OBS_53_L10  head  11 64 66