# File generated by Flopy version 3.9.1 on 09/02/2025 at 12:05:04.
BEGIN options
  DENSEREF    1000.00000000
END options

BEGIN dimensions
  NRHOSPECIES  1
END dimensions

BEGIN packagedata
  1       0.71428571       0.00000000  gwt  salinity
END packagedata

