# File generated by Flopy version 3.9.1 on 09/02/2025 at 12:05:04.
BEGIN options
END options

BEGIN continuous  FILEOUT  outputs/hd_obs.csv
  obs_0_l0  head  1 17 40
  obs_0_l1  head  2 17 40
  obs_0_l2  head  3 17 40
  obs_0_l3  head  4 17 40
  obs_0_l4  head  5 17 40
  obs_0_l5  head  6 17 40
  obs_0_l6  head  7 17 40
  obs_0_l7  head  8 17 40
  obs_0_l8  head  9 17 40
  obs_0_l9  head  10 17 40
  obs_0_l10  head  11 17 40
  obs_0_l11  head  12 17 40
  obs_0_l12  head  13 17 40
  obs_0_l13  head  14 17 40
  obs_0_l14  head  15 17 40
  obs_0_l15  head  16 17 40
  obs_0_l16  head  17 17 40
  obs_0_l17  head  18 17 40
  obs_0_l18  head  19 17 40
  obs_0_l19  head  20 17 40
  obs_1_l0  head  1 17 39
  obs_1_l1  head  2 17 39
  obs_1_l2  head  3 17 39
  obs_1_l3  head  4 17 39
  obs_1_l4  head  5 17 39
  obs_1_l5  head  6 17 39
  obs_1_l6  head  7 17 39
  obs_1_l7  head  8 17 39
  obs_1_l8  head  9 17 39
  obs_1_l9  head  10 17 39
  obs_1_l10  head  11 17 39
  obs_1_l11  head  12 17 39
  obs_1_l12  head  13 17 39
  obs_1_l13  head  14 17 39
  obs_1_l14  head  15 17 39
  obs_1_l15  head  16 17 39
  obs_1_l16  head  17 17 39
  obs_1_l17  head  18 17 39
  obs_1_l18  head  19 17 39
  obs_1_l19  head  20 17 39
  obs_2_l0  head  1 17 38
  obs_2_l1  head  2 17 38
  obs_2_l2  head  3 17 38
  obs_2_l3  head  4 17 38
  obs_2_l4  head  5 17 38
  obs_2_l5  head  6 17 38
  obs_2_l6  head  7 17 38
  obs_2_l7  head  8 17 38
  obs_2_l8  head  9 17 38
  obs_2_l9  head  10 17 38
  obs_2_l10  head  11 17 38
  obs_2_l11  head  12 17 38
  obs_2_l12  head  13 17 38
  obs_2_l13  head  14 17 38
  obs_2_l14  head  15 17 38
  obs_2_l15  head  16 17 38
  obs_2_l16  head  17 17 38
  obs_2_l17  head  18 17 38
  obs_2_l18  head  19 17 38
  obs_2_l19  head  20 17 38
  obs_3_l0  head  1 17 37
  obs_3_l1  head  2 17 37
  obs_3_l2  head  3 17 37
  obs_3_l3  head  4 17 37
  obs_3_l4  head  5 17 37
  obs_3_l5  head  6 17 37
  obs_3_l6  head  7 17 37
  obs_3_l7  head  8 17 37
  obs_3_l8  head  9 17 37
  obs_3_l9  head  10 17 37
  obs_3_l10  head  11 17 37
  obs_3_l11  head  12 17 37
  obs_3_l12  head  13 17 37
  obs_3_l13  head  14 17 37
  obs_3_l14  head  15 17 37
  obs_3_l15  head  16 17 37
  obs_3_l16  head  17 17 37
  obs_3_l17  head  18 17 37
  obs_3_l18  head  19 17 37
  obs_3_l19  head  20 17 37
  obs_4_l0  head  1 61 71
  obs_4_l1  head  2 61 71
  obs_4_l2  head  3 61 71
  obs_4_l3  head  4 61 71
  obs_4_l4  head  5 61 71
  obs_4_l5  head  6 61 71
  obs_4_l6  head  7 61 71
  obs_4_l7  head  8 61 71
  obs_4_l8  head  9 61 71
  obs_4_l9  head  10 61 71
  obs_4_l10  head  11 61 71
  obs_4_l11  head  12 61 71
  obs_4_l12  head  13 61 71
  obs_4_l13  head  14 61 71
  obs_4_l14  head  15 61 71
  obs_4_l15  head  16 61 71
  obs_4_l16  head  17 61 71
  obs_4_l17  head  18 61 71
  obs_4_l18  head  19 61 71
  obs_4_l19  head  20 61 71
  obs_5_l0  head  1 61 70
  obs_5_l1  head  2 61 70
  obs_5_l2  head  3 61 70
  obs_5_l3  head  4 61 70
  obs_5_l4  head  5 61 70
  obs_5_l5  head  6 61 70
  obs_5_l6  head  7 61 70
  obs_5_l7  head  8 61 70
  obs_5_l8  head  9 61 70
  obs_5_l9  head  10 61 70
  obs_5_l10  head  11 61 70
  obs_5_l11  head  12 61 70
  obs_5_l12  head  13 61 70
  obs_5_l13  head  14 61 70
  obs_5_l14  head  15 61 70
  obs_5_l15  head  16 61 70
  obs_5_l16  head  17 61 70
  obs_5_l17  head  18 61 70
  obs_5_l18  head  19 61 70
  obs_5_l19  head  20 61 70
  obs_6_l0  head  1 61 69
  obs_6_l1  head  2 61 69
  obs_6_l2  head  3 61 69
  obs_6_l3  head  4 61 69
  obs_6_l4  head  5 61 69
  obs_6_l5  head  6 61 69
  obs_6_l6  head  7 61 69
  obs_6_l7  head  8 61 69
  obs_6_l8  head  9 61 69
  obs_6_l9  head  10 61 69
  obs_6_l10  head  11 61 69
  obs_6_l11  head  12 61 69
  obs_6_l12  head  13 61 69
  obs_6_l13  head  14 61 69
  obs_6_l14  head  15 61 69
  obs_6_l15  head  16 61 69
  obs_6_l16  head  17 61 69
  obs_6_l17  head  18 61 69
  obs_6_l18  head  19 61 69
  obs_6_l19  head  20 61 69
  obs_7_l0  head  1 61 68
  obs_7_l1  head  2 61 68
  obs_7_l2  head  3 61 68
  obs_7_l3  head  4 61 68
  obs_7_l4  head  5 61 68
  obs_7_l5  head  6 61 68
  obs_7_l6  head  7 61 68
  obs_7_l7  head  8 61 68
  obs_7_l8  head  9 61 68
  obs_7_l9  head  10 61 68
  obs_7_l10  head  11 61 68
  obs_7_l11  head  12 61 68
  obs_7_l12  head  13 61 68
  obs_7_l13  head  14 61 68
  obs_7_l14  head  15 61 68
  obs_7_l15  head  16 61 68
  obs_7_l16  head  17 61 68
  obs_7_l17  head  18 61 68
  obs_7_l18  head  19 61 68
  obs_7_l19  head  20 61 68
  obs_8_l0  head  1 61 67
  obs_8_l1  head  2 61 67
  obs_8_l2  head  3 61 67
  obs_8_l3  head  4 61 67
  obs_8_l4  head  5 61 67
  obs_8_l5  head  6 61 67
  obs_8_l6  head  7 61 67
  obs_8_l7  head  8 61 67
  obs_8_l8  head  9 61 67
  obs_8_l9  head  10 61 67
  obs_8_l10  head  11 61 67
  obs_8_l11  head  12 61 67
  obs_8_l12  head  13 61 67
  obs_8_l13  head  14 61 67
  obs_8_l14  head  15 61 67
  obs_8_l15  head  16 61 67
  obs_8_l16  head  17 61 67
  obs_8_l17  head  18 61 67
  obs_8_l18  head  19 61 67
  obs_8_l19  head  20 61 67
  obs_9_l0  head  1 61 66
  obs_9_l1  head  2 61 66
  obs_9_l2  head  3 61 66
  obs_9_l3  head  4 61 66
  obs_9_l4  head  5 61 66
  obs_9_l5  head  6 61 66
  obs_9_l6  head  7 61 66
  obs_9_l7  head  8 61 66
  obs_9_l8  head  9 61 66
  obs_9_l9  head  10 61 66
  obs_9_l10  head  11 61 66
  obs_9_l11  head  12 61 66
  obs_9_l12  head  13 61 66
  obs_9_l13  head  14 61 66
  obs_9_l14  head  15 61 66
  obs_9_l15  head  16 61 66
  obs_9_l16  head  17 61 66
  obs_9_l17  head  18 61 66
  obs_9_l18  head  19 61 66
  obs_9_l19  head  20 61 66
  obs_10_l0  head  1 61 65
  obs_10_l1  head  2 61 65
  obs_10_l2  head  3 61 65
  obs_10_l3  head  4 61 65
  obs_10_l4  head  5 61 65
  obs_10_l5  head  6 61 65
  obs_10_l6  head  7 61 65
  obs_10_l7  head  8 61 65
  obs_10_l8  head  9 61 65
  obs_10_l9  head  10 61 65
  obs_10_l10  head  11 61 65
  obs_10_l11  head  12 61 65
  obs_10_l12  head  13 61 65
  obs_10_l13  head  14 61 65
  obs_10_l14  head  15 61 65
  obs_10_l15  head  16 61 65
  obs_10_l16  head  17 61 65
  obs_10_l17  head  18 61 65
  obs_10_l18  head  19 61 65
  obs_10_l19  head  20 61 65
  obs_11_l0  head  1 61 64
  obs_11_l1  head  2 61 64
  obs_11_l2  head  3 61 64
  obs_11_l3  head  4 61 64
  obs_11_l4  head  5 61 64
  obs_11_l5  head  6 61 64
  obs_11_l6  head  7 61 64
  obs_11_l7  head  8 61 64
  obs_11_l8  head  9 61 64
  obs_11_l9  head  10 61 64
  obs_11_l10  head  11 61 64
  obs_11_l11  head  12 61 64
  obs_11_l12  head  13 61 64
  obs_11_l13  head  14 61 64
  obs_11_l14  head  15 61 64
  obs_11_l15  head  16 61 64
  obs_11_l16  head  17 61 64
  obs_11_l17  head  18 61 64
  obs_11_l18  head  19 61 64
  obs_11_l19  head  20 61 64
  obs_12_l0  head  1 61 63
  obs_12_l1  head  2 61 63
  obs_12_l2  head  3 61 63
  obs_12_l3  head  4 61 63
  obs_12_l4  head  5 61 63
  obs_12_l5  head  6 61 63
  obs_12_l6  head  7 61 63
  obs_12_l7  head  8 61 63
  obs_12_l8  head  9 61 63
  obs_12_l9  head  10 61 63
  obs_12_l10  head  11 61 63
  obs_12_l11  head  12 61 63
  obs_12_l12  head  13 61 63
  obs_12_l13  head  14 61 63
  obs_12_l14  head  15 61 63
  obs_12_l15  head  16 61 63
  obs_12_l16  head  17 61 63
  obs_12_l17  head  18 61 63
  obs_12_l18  head  19 61 63
  obs_12_l19  head  20 61 63
  obs_13_l0  head  1 61 62
  obs_13_l1  head  2 61 62
  obs_13_l2  head  3 61 62
  obs_13_l3  head  4 61 62
  obs_13_l4  head  5 61 62
  obs_13_l5  head  6 61 62
  obs_13_l6  head  7 61 62
  obs_13_l7  head  8 61 62
  obs_13_l8  head  9 61 62
  obs_13_l9  head  10 61 62
  obs_13_l10  head  11 61 62
  obs_13_l11  head  12 61 62
  obs_13_l12  head  13 61 62
  obs_13_l13  head  14 61 62
  obs_13_l14  head  15 61 62
  obs_13_l15  head  16 61 62
  obs_13_l16  head  17 61 62
  obs_13_l17  head  18 61 62
  obs_13_l18  head  19 61 62
  obs_13_l19  head  20 61 62
  obs_14_l0  head  1 61 61
  obs_14_l1  head  2 61 61
  obs_14_l2  head  3 61 61
  obs_14_l3  head  4 61 61
  obs_14_l4  head  5 61 61
  obs_14_l5  head  6 61 61
  obs_14_l6  head  7 61 61
  obs_14_l7  head  8 61 61
  obs_14_l8  head  9 61 61
  obs_14_l9  head  10 61 61
  obs_14_l10  head  11 61 61
  obs_14_l11  head  12 61 61
  obs_14_l12  head  13 61 61
  obs_14_l13  head  14 61 61
  obs_14_l14  head  15 61 61
  obs_14_l15  head  16 61 61
  obs_14_l16  head  17 61 61
  obs_14_l17  head  18 61 61
  obs_14_l18  head  19 61 61
  obs_14_l19  head  20 61 61
  obs_15_l0  head  1 61 60
  obs_15_l1  head  2 61 60
  obs_15_l2  head  3 61 60
  obs_15_l3  head  4 61 60
  obs_15_l4  head  5 61 60
  obs_15_l5  head  6 61 60
  obs_15_l6  head  7 61 60
  obs_15_l7  head  8 61 60
  obs_15_l8  head  9 61 60
  obs_15_l9  head  10 61 60
  obs_15_l10  head  11 61 60
  obs_15_l11  head  12 61 60
  obs_15_l12  head  13 61 60
  obs_15_l13  head  14 61 60
  obs_15_l14  head  15 61 60
  obs_15_l15  head  16 61 60
  obs_15_l16  head  17 61 60
  obs_15_l17  head  18 61 60
  obs_15_l18  head  19 61 60
  obs_15_l19  head  20 61 60
  obs_16_l0  head  1 61 59
  obs_16_l1  head  2 61 59
  obs_16_l2  head  3 61 59
  obs_16_l3  head  4 61 59
  obs_16_l4  head  5 61 59
  obs_16_l5  head  6 61 59
  obs_16_l6  head  7 61 59
  obs_16_l7  head  8 61 59
  obs_16_l8  head  9 61 59
  obs_16_l9  head  10 61 59
  obs_16_l10  head  11 61 59
  obs_16_l11  head  12 61 59
  obs_16_l12  head  13 61 59
  obs_16_l13  head  14 61 59
  obs_16_l14  head  15 61 59
  obs_16_l15  head  16 61 59
  obs_16_l16  head  17 61 59
  obs_16_l17  head  18 61 59
  obs_16_l18  head  19 61 59
  obs_16_l19  head  20 61 59
  obs_17_l0  head  1 61 58
  obs_17_l1  head  2 61 58
  obs_17_l2  head  3 61 58
  obs_17_l3  head  4 61 58
  obs_17_l4  head  5 61 58
  obs_17_l5  head  6 61 58
  obs_17_l6  head  7 61 58
  obs_17_l7  head  8 61 58
  obs_17_l8  head  9 61 58
  obs_17_l9  head  10 61 58
  obs_17_l10  head  11 61 58
  obs_17_l11  head  12 61 58
  obs_17_l12  head  13 61 58
  obs_17_l13  head  14 61 58
  obs_17_l14  head  15 61 58
  obs_17_l15  head  16 61 58
  obs_17_l16  head  17 61 58
  obs_17_l17  head  18 61 58
  obs_17_l18  head  19 61 58
  obs_17_l19  head  20 61 58
  obs_18_l0  head  1 61 57
  obs_18_l1  head  2 61 57
  obs_18_l2  head  3 61 57
  obs_18_l3  head  4 61 57
  obs_18_l4  head  5 61 57
  obs_18_l5  head  6 61 57
  obs_18_l6  head  7 61 57
  obs_18_l7  head  8 61 57
  obs_18_l8  head  9 61 57
  obs_18_l9  head  10 61 57
  obs_18_l10  head  11 61 57
  obs_18_l11  head  12 61 57
  obs_18_l12  head  13 61 57
  obs_18_l13  head  14 61 57
  obs_18_l14  head  15 61 57
  obs_18_l15  head  16 61 57
  obs_18_l16  head  17 61 57
  obs_18_l17  head  18 61 57
  obs_18_l18  head  19 61 57
  obs_18_l19  head  20 61 57
  obs_19_l0  head  1 61 56
  obs_19_l1  head  2 61 56
  obs_19_l2  head  3 61 56
  obs_19_l3  head  4 61 56
  obs_19_l4  head  5 61 56
  obs_19_l5  head  6 61 56
  obs_19_l6  head  7 61 56
  obs_19_l7  head  8 61 56
  obs_19_l8  head  9 61 56
  obs_19_l9  head  10 61 56
  obs_19_l10  head  11 61 56
  obs_19_l11  head  12 61 56
  obs_19_l12  head  13 61 56
  obs_19_l13  head  14 61 56
  obs_19_l14  head  15 61 56
  obs_19_l15  head  16 61 56
  obs_19_l16  head  17 61 56
  obs_19_l17  head  18 61 56
  obs_19_l18  head  19 61 56
  obs_19_l19  head  20 61 56
  obs_20_l0  head  1 62 71
  obs_20_l1  head  2 62 71
  obs_20_l2  head  3 62 71
  obs_20_l3  head  4 62 71
  obs_20_l4  head  5 62 71
  obs_20_l5  head  6 62 71
  obs_20_l6  head  7 62 71
  obs_20_l7  head  8 62 71
  obs_20_l8  head  9 62 71
  obs_20_l9  head  10 62 71
  obs_20_l10  head  11 62 71
  obs_20_l11  head  12 62 71
  obs_20_l12  head  13 62 71
  obs_20_l13  head  14 62 71
  obs_20_l14  head  15 62 71
  obs_20_l15  head  16 62 71
  obs_20_l16  head  17 62 71
  obs_20_l17  head  18 62 71
  obs_20_l18  head  19 62 71
  obs_20_l19  head  20 62 71
  obs_21_l0  head  1 62 70
  obs_21_l1  head  2 62 70
  obs_21_l2  head  3 62 70
  obs_21_l3  head  4 62 70
  obs_21_l4  head  5 62 70
  obs_21_l5  head  6 62 70
  obs_21_l6  head  7 62 70
  obs_21_l7  head  8 62 70
  obs_21_l8  head  9 62 70
  obs_21_l9  head  10 62 70
  obs_21_l10  head  11 62 70
  obs_21_l11  head  12 62 70
  obs_21_l12  head  13 62 70
  obs_21_l13  head  14 62 70
  obs_21_l14  head  15 62 70
  obs_21_l15  head  16 62 70
  obs_21_l16  head  17 62 70
  obs_21_l17  head  18 62 70
  obs_21_l18  head  19 62 70
  obs_21_l19  head  20 62 70
  obs_22_l0  head  1 62 69
  obs_22_l1  head  2 62 69
  obs_22_l2  head  3 62 69
  obs_22_l3  head  4 62 69
  obs_22_l4  head  5 62 69
  obs_22_l5  head  6 62 69
  obs_22_l6  head  7 62 69
  obs_22_l7  head  8 62 69
  obs_22_l8  head  9 62 69
  obs_22_l9  head  10 62 69
  obs_22_l10  head  11 62 69
  obs_22_l11  head  12 62 69
  obs_22_l12  head  13 62 69
  obs_22_l13  head  14 62 69
  obs_22_l14  head  15 62 69
  obs_22_l15  head  16 62 69
  obs_22_l16  head  17 62 69
  obs_22_l17  head  18 62 69
  obs_22_l18  head  19 62 69
  obs_22_l19  head  20 62 69
  obs_23_l0  head  1 62 68
  obs_23_l1  head  2 62 68
  obs_23_l2  head  3 62 68
  obs_23_l3  head  4 62 68
  obs_23_l4  head  5 62 68
  obs_23_l5  head  6 62 68
  obs_23_l6  head  7 62 68
  obs_23_l7  head  8 62 68
  obs_23_l8  head  9 62 68
  obs_23_l9  head  10 62 68
  obs_23_l10  head  11 62 68
  obs_23_l11  head  12 62 68
  obs_23_l12  head  13 62 68
  obs_23_l13  head  14 62 68
  obs_23_l14  head  15 62 68
  obs_23_l15  head  16 62 68
  obs_23_l16  head  17 62 68
  obs_23_l17  head  18 62 68
  obs_23_l18  head  19 62 68
  obs_23_l19  head  20 62 68
  obs_24_l0  head  1 62 67
  obs_24_l1  head  2 62 67
  obs_24_l2  head  3 62 67
  obs_24_l3  head  4 62 67
  obs_24_l4  head  5 62 67
  obs_24_l5  head  6 62 67
  obs_24_l6  head  7 62 67
  obs_24_l7  head  8 62 67
  obs_24_l8  head  9 62 67
  obs_24_l9  head  10 62 67
  obs_24_l10  head  11 62 67
  obs_24_l11  head  12 62 67
  obs_24_l12  head  13 62 67
  obs_24_l13  head  14 62 67
  obs_24_l14  head  15 62 67
  obs_24_l15  head  16 62 67
  obs_24_l16  head  17 62 67
  obs_24_l17  head  18 62 67
  obs_24_l18  head  19 62 67
  obs_24_l19  head  20 62 67
  obs_25_l0  head  1 62 66
  obs_25_l1  head  2 62 66
  obs_25_l2  head  3 62 66
  obs_25_l3  head  4 62 66
  obs_25_l4  head  5 62 66
  obs_25_l5  head  6 62 66
  obs_25_l6  head  7 62 66
  obs_25_l7  head  8 62 66
  obs_25_l8  head  9 62 66
  obs_25_l9  head  10 62 66
  obs_25_l10  head  11 62 66
  obs_25_l11  head  12 62 66
  obs_25_l12  head  13 62 66
  obs_25_l13  head  14 62 66
  obs_25_l14  head  15 62 66
  obs_25_l15  head  16 62 66
  obs_25_l16  head  17 62 66
  obs_25_l17  head  18 62 66
  obs_25_l18  head  19 62 66
  obs_25_l19  head  20 62 66
  obs_26_l0  head  1 62 65
  obs_26_l1  head  2 62 65
  obs_26_l2  head  3 62 65
  obs_26_l3  head  4 62 65
  obs_26_l4  head  5 62 65
  obs_26_l5  head  6 62 65
  obs_26_l6  head  7 62 65
  obs_26_l7  head  8 62 65
  obs_26_l8  head  9 62 65
  obs_26_l9  head  10 62 65
  obs_26_l10  head  11 62 65
  obs_26_l11  head  12 62 65
  obs_26_l12  head  13 62 65
  obs_26_l13  head  14 62 65
  obs_26_l14  head  15 62 65
  obs_26_l15  head  16 62 65
  obs_26_l16  head  17 62 65
  obs_26_l17  head  18 62 65
  obs_26_l18  head  19 62 65
  obs_26_l19  head  20 62 65
  obs_27_l0  head  1 62 64
  obs_27_l1  head  2 62 64
  obs_27_l2  head  3 62 64
  obs_27_l3  head  4 62 64
  obs_27_l4  head  5 62 64
  obs_27_l5  head  6 62 64
  obs_27_l6  head  7 62 64
  obs_27_l7  head  8 62 64
  obs_27_l8  head  9 62 64
  obs_27_l9  head  10 62 64
  obs_27_l10  head  11 62 64
  obs_27_l11  head  12 62 64
  obs_27_l12  head  13 62 64
  obs_27_l13  head  14 62 64
  obs_27_l14  head  15 62 64
  obs_27_l15  head  16 62 64
  obs_27_l16  head  17 62 64
  obs_27_l17  head  18 62 64
  obs_27_l18  head  19 62 64
  obs_27_l19  head  20 62 64
  obs_28_l0  head  1 62 63
  obs_28_l1  head  2 62 63
  obs_28_l2  head  3 62 63
  obs_28_l3  head  4 62 63
  obs_28_l4  head  5 62 63
  obs_28_l5  head  6 62 63
  obs_28_l6  head  7 62 63
  obs_28_l7  head  8 62 63
  obs_28_l8  head  9 62 63
  obs_28_l9  head  10 62 63
  obs_28_l10  head  11 62 63
  obs_28_l11  head  12 62 63
  obs_28_l12  head  13 62 63
  obs_28_l13  head  14 62 63
  obs_28_l14  head  15 62 63
  obs_28_l15  head  16 62 63
  obs_28_l16  head  17 62 63
  obs_28_l17  head  18 62 63
  obs_28_l18  head  19 62 63
  obs_28_l19  head  20 62 63
  obs_29_l0  head  1 62 62
  obs_29_l1  head  2 62 62
  obs_29_l2  head  3 62 62
  obs_29_l3  head  4 62 62
  obs_29_l4  head  5 62 62
  obs_29_l5  head  6 62 62
  obs_29_l6  head  7 62 62
  obs_29_l7  head  8 62 62
  obs_29_l8  head  9 62 62
  obs_29_l9  head  10 62 62
  obs_29_l10  head  11 62 62
  obs_29_l11  head  12 62 62
  obs_29_l12  head  13 62 62
  obs_29_l13  head  14 62 62
  obs_29_l14  head  15 62 62
  obs_29_l15  head  16 62 62
  obs_29_l16  head  17 62 62
  obs_29_l17  head  18 62 62
  obs_29_l18  head  19 62 62
  obs_29_l19  head  20 62 62
  obs_30_l0  head  1 62 61
  obs_30_l1  head  2 62 61
  obs_30_l2  head  3 62 61
  obs_30_l3  head  4 62 61
  obs_30_l4  head  5 62 61
  obs_30_l5  head  6 62 61
  obs_30_l6  head  7 62 61
  obs_30_l7  head  8 62 61
  obs_30_l8  head  9 62 61
  obs_30_l9  head  10 62 61
  obs_30_l10  head  11 62 61
  obs_30_l11  head  12 62 61
  obs_30_l12  head  13 62 61
  obs_30_l13  head  14 62 61
  obs_30_l14  head  15 62 61
  obs_30_l15  head  16 62 61
  obs_30_l16  head  17 62 61
  obs_30_l17  head  18 62 61
  obs_30_l18  head  19 62 61
  obs_30_l19  head  20 62 61
  obs_31_l0  head  1 62 60
  obs_31_l1  head  2 62 60
  obs_31_l2  head  3 62 60
  obs_31_l3  head  4 62 60
  obs_31_l4  head  5 62 60
  obs_31_l5  head  6 62 60
  obs_31_l6  head  7 62 60
  obs_31_l7  head  8 62 60
  obs_31_l8  head  9 62 60
  obs_31_l9  head  10 62 60
  obs_31_l10  head  11 62 60
  obs_31_l11  head  12 62 60
  obs_31_l12  head  13 62 60
  obs_31_l13  head  14 62 60
  obs_31_l14  head  15 62 60
  obs_31_l15  head  16 62 60
  obs_31_l16  head  17 62 60
  obs_31_l17  head  18 62 60
  obs_31_l18  head  19 62 60
  obs_31_l19  head  20 62 60
  obs_32_l0  head  1 62 59
  obs_32_l1  head  2 62 59
  obs_32_l2  head  3 62 59
  obs_32_l3  head  4 62 59
  obs_32_l4  head  5 62 59
  obs_32_l5  head  6 62 59
  obs_32_l6  head  7 62 59
  obs_32_l7  head  8 62 59
  obs_32_l8  head  9 62 59
  obs_32_l9  head  10 62 59
  obs_32_l10  head  11 62 59
  obs_32_l11  head  12 62 59
  obs_32_l12  head  13 62 59
  obs_32_l13  head  14 62 59
  obs_32_l14  head  15 62 59
  obs_32_l15  head  16 62 59
  obs_32_l16  head  17 62 59
  obs_32_l17  head  18 62 59
  obs_32_l18  head  19 62 59
  obs_32_l19  head  20 62 59
  obs_33_l0  head  1 62 58
  obs_33_l1  head  2 62 58
  obs_33_l2  head  3 62 58
  obs_33_l3  head  4 62 58
  obs_33_l4  head  5 62 58
  obs_33_l5  head  6 62 58
  obs_33_l6  head  7 62 58
  obs_33_l7  head  8 62 58
  obs_33_l8  head  9 62 58
  obs_33_l9  head  10 62 58
  obs_33_l10  head  11 62 58
  obs_33_l11  head  12 62 58
  obs_33_l12  head  13 62 58
  obs_33_l13  head  14 62 58
  obs_33_l14  head  15 62 58
  obs_33_l15  head  16 62 58
  obs_33_l16  head  17 62 58
  obs_33_l17  head  18 62 58
  obs_33_l18  head  19 62 58
  obs_33_l19  head  20 62 58
  obs_34_l0  head  1 62 57
  obs_34_l1  head  2 62 57
  obs_34_l2  head  3 62 57
  obs_34_l3  head  4 62 57
  obs_34_l4  head  5 62 57
  obs_34_l5  head  6 62 57
  obs_34_l6  head  7 62 57
  obs_34_l7  head  8 62 57
  obs_34_l8  head  9 62 57
  obs_34_l9  head  10 62 57
  obs_34_l10  head  11 62 57
  obs_34_l11  head  12 62 57
  obs_34_l12  head  13 62 57
  obs_34_l13  head  14 62 57
  obs_34_l14  head  15 62 57
  obs_34_l15  head  16 62 57
  obs_34_l16  head  17 62 57
  obs_34_l17  head  18 62 57
  obs_34_l18  head  19 62 57
  obs_34_l19  head  20 62 57
  obs_35_l0  head  1 62 56
  obs_35_l1  head  2 62 56
  obs_35_l2  head  3 62 56
  obs_35_l3  head  4 62 56
  obs_35_l4  head  5 62 56
  obs_35_l5  head  6 62 56
  obs_35_l6  head  7 62 56
  obs_35_l7  head  8 62 56
  obs_35_l8  head  9 62 56
  obs_35_l9  head  10 62 56
  obs_35_l10  head  11 62 56
  obs_35_l11  head  12 62 56
  obs_35_l12  head  13 62 56
  obs_35_l13  head  14 62 56
  obs_35_l14  head  15 62 56
  obs_35_l15  head  16 62 56
  obs_35_l16  head  17 62 56
  obs_35_l17  head  18 62 56
  obs_35_l18  head  19 62 56
  obs_35_l19  head  20 62 56
  obs_36_l0  head  1 63 71
  obs_36_l1  head  2 63 71
  obs_36_l2  head  3 63 71
  obs_36_l3  head  4 63 71
  obs_36_l4  head  5 63 71
  obs_36_l5  head  6 63 71
  obs_36_l6  head  7 63 71
  obs_36_l7  head  8 63 71
  obs_36_l8  head  9 63 71
  obs_36_l9  head  10 63 71
  obs_36_l10  head  11 63 71
  obs_36_l11  head  12 63 71
  obs_36_l12  head  13 63 71
  obs_36_l13  head  14 63 71
  obs_36_l14  head  15 63 71
  obs_36_l15  head  16 63 71
  obs_36_l16  head  17 63 71
  obs_36_l17  head  18 63 71
  obs_36_l18  head  19 63 71
  obs_36_l19  head  20 63 71
  obs_37_l0  head  1 63 70
  obs_37_l1  head  2 63 70
  obs_37_l2  head  3 63 70
  obs_37_l3  head  4 63 70
  obs_37_l4  head  5 63 70
  obs_37_l5  head  6 63 70
  obs_37_l6  head  7 63 70
  obs_37_l7  head  8 63 70
  obs_37_l8  head  9 63 70
  obs_37_l9  head  10 63 70
  obs_37_l10  head  11 63 70
  obs_37_l11  head  12 63 70
  obs_37_l12  head  13 63 70
  obs_37_l13  head  14 63 70
  obs_37_l14  head  15 63 70
  obs_37_l15  head  16 63 70
  obs_37_l16  head  17 63 70
  obs_37_l17  head  18 63 70
  obs_37_l18  head  19 63 70
  obs_37_l19  head  20 63 70
  obs_38_l0  head  1 63 69
  obs_38_l1  head  2 63 69
  obs_38_l2  head  3 63 69
  obs_38_l3  head  4 63 69
  obs_38_l4  head  5 63 69
  obs_38_l5  head  6 63 69
  obs_38_l6  head  7 63 69
  obs_38_l7  head  8 63 69
  obs_38_l8  head  9 63 69
  obs_38_l9  head  10 63 69
  obs_38_l10  head  11 63 69
  obs_38_l11  head  12 63 69
  obs_38_l12  head  13 63 69
  obs_38_l13  head  14 63 69
  obs_38_l14  head  15 63 69
  obs_38_l15  head  16 63 69
  obs_38_l16  head  17 63 69
  obs_38_l17  head  18 63 69
  obs_38_l18  head  19 63 69
  obs_38_l19  head  20 63 69
  obs_39_l0  head  1 63 68
  obs_39_l1  head  2 63 68
  obs_39_l2  head  3 63 68
  obs_39_l3  head  4 63 68
  obs_39_l4  head  5 63 68
  obs_39_l5  head  6 63 68
  obs_39_l6  head  7 63 68
  obs_39_l7  head  8 63 68
  obs_39_l8  head  9 63 68
  obs_39_l9  head  10 63 68
  obs_39_l10  head  11 63 68
  obs_39_l11  head  12 63 68
  obs_39_l12  head  13 63 68
  obs_39_l13  head  14 63 68
  obs_39_l14  head  15 63 68
  obs_39_l15  head  16 63 68
  obs_39_l16  head  17 63 68
  obs_39_l17  head  18 63 68
  obs_39_l18  head  19 63 68
  obs_39_l19  head  20 63 68
  obs_40_l0  head  1 63 67
  obs_40_l1  head  2 63 67
  obs_40_l2  head  3 63 67
  obs_40_l3  head  4 63 67
  obs_40_l4  head  5 63 67
  obs_40_l5  head  6 63 67
  obs_40_l6  head  7 63 67
  obs_40_l7  head  8 63 67
  obs_40_l8  head  9 63 67
  obs_40_l9  head  10 63 67
  obs_40_l10  head  11 63 67
  obs_40_l11  head  12 63 67
  obs_40_l12  head  13 63 67
  obs_40_l13  head  14 63 67
  obs_40_l14  head  15 63 67
  obs_40_l15  head  16 63 67
  obs_40_l16  head  17 63 67
  obs_40_l17  head  18 63 67
  obs_40_l18  head  19 63 67
  obs_40_l19  head  20 63 67
  obs_41_l0  head  1 63 66
  obs_41_l1  head  2 63 66
  obs_41_l2  head  3 63 66
  obs_41_l3  head  4 63 66
  obs_41_l4  head  5 63 66
  obs_41_l5  head  6 63 66
  obs_41_l6  head  7 63 66
  obs_41_l7  head  8 63 66
  obs_41_l8  head  9 63 66
  obs_41_l9  head  10 63 66
  obs_41_l10  head  11 63 66
  obs_41_l11  head  12 63 66
  obs_41_l12  head  13 63 66
  obs_41_l13  head  14 63 66
  obs_41_l14  head  15 63 66
  obs_41_l15  head  16 63 66
  obs_41_l16  head  17 63 66
  obs_41_l17  head  18 63 66
  obs_41_l18  head  19 63 66
  obs_41_l19  head  20 63 66
  obs_42_l0  head  1 63 65
  obs_42_l1  head  2 63 65
  obs_42_l2  head  3 63 65
  obs_42_l3  head  4 63 65
  obs_42_l4  head  5 63 65
  obs_42_l5  head  6 63 65
  obs_42_l6  head  7 63 65
  obs_42_l7  head  8 63 65
  obs_42_l8  head  9 63 65
  obs_42_l9  head  10 63 65
  obs_42_l10  head  11 63 65
  obs_42_l11  head  12 63 65
  obs_42_l12  head  13 63 65
  obs_42_l13  head  14 63 65
  obs_42_l14  head  15 63 65
  obs_42_l15  head  16 63 65
  obs_42_l16  head  17 63 65
  obs_42_l17  head  18 63 65
  obs_42_l18  head  19 63 65
  obs_42_l19  head  20 63 65
  obs_43_l0  head  1 63 64
  obs_43_l1  head  2 63 64
  obs_43_l2  head  3 63 64
  obs_43_l3  head  4 63 64
  obs_43_l4  head  5 63 64
  obs_43_l5  head  6 63 64
  obs_43_l6  head  7 63 64
  obs_43_l7  head  8 63 64
  obs_43_l8  head  9 63 64
  obs_43_l9  head  10 63 64
  obs_43_l10  head  11 63 64
  obs_43_l11  head  12 63 64
  obs_43_l12  head  13 63 64
  obs_43_l13  head  14 63 64
  obs_43_l14  head  15 63 64
  obs_43_l15  head  16 63 64
  obs_43_l16  head  17 63 64
  obs_43_l17  head  18 63 64
  obs_43_l18  head  19 63 64
  obs_43_l19  head  20 63 64
  obs_44_l0  head  1 63 63
  obs_44_l1  head  2 63 63
  obs_44_l2  head  3 63 63
  obs_44_l3  head  4 63 63
  obs_44_l4  head  5 63 63
  obs_44_l5  head  6 63 63
  obs_44_l6  head  7 63 63
  obs_44_l7  head  8 63 63
  obs_44_l8  head  9 63 63
  obs_44_l9  head  10 63 63
  obs_44_l10  head  11 63 63
  obs_44_l11  head  12 63 63
  obs_44_l12  head  13 63 63
  obs_44_l13  head  14 63 63
  obs_44_l14  head  15 63 63
  obs_44_l15  head  16 63 63
  obs_44_l16  head  17 63 63
  obs_44_l17  head  18 63 63
  obs_44_l18  head  19 63 63
  obs_44_l19  head  20 63 63
  obs_45_l0  head  1 63 62
  obs_45_l1  head  2 63 62
  obs_45_l2  head  3 63 62
  obs_45_l3  head  4 63 62
  obs_45_l4  head  5 63 62
  obs_45_l5  head  6 63 62
  obs_45_l6  head  7 63 62
  obs_45_l7  head  8 63 62
  obs_45_l8  head  9 63 62
  obs_45_l9  head  10 63 62
  obs_45_l10  head  11 63 62
  obs_45_l11  head  12 63 62
  obs_45_l12  head  13 63 62
  obs_45_l13  head  14 63 62
  obs_45_l14  head  15 63 62
  obs_45_l15  head  16 63 62
  obs_45_l16  head  17 63 62
  obs_45_l17  head  18 63 62
  obs_45_l18  head  19 63 62
  obs_45_l19  head  20 63 62
  obs_46_l0  head  1 63 61
  obs_46_l1  head  2 63 61
  obs_46_l2  head  3 63 61
  obs_46_l3  head  4 63 61
  obs_46_l4  head  5 63 61
  obs_46_l5  head  6 63 61
  obs_46_l6  head  7 63 61
  obs_46_l7  head  8 63 61
  obs_46_l8  head  9 63 61
  obs_46_l9  head  10 63 61
  obs_46_l10  head  11 63 61
  obs_46_l11  head  12 63 61
  obs_46_l12  head  13 63 61
  obs_46_l13  head  14 63 61
  obs_46_l14  head  15 63 61
  obs_46_l15  head  16 63 61
  obs_46_l16  head  17 63 61
  obs_46_l17  head  18 63 61
  obs_46_l18  head  19 63 61
  obs_46_l19  head  20 63 61
  obs_47_l0  head  1 63 60
  obs_47_l1  head  2 63 60
  obs_47_l2  head  3 63 60
  obs_47_l3  head  4 63 60
  obs_47_l4  head  5 63 60
  obs_47_l5  head  6 63 60
  obs_47_l6  head  7 63 60
  obs_47_l7  head  8 63 60
  obs_47_l8  head  9 63 60
  obs_47_l9  head  10 63 60
  obs_47_l10  head  11 63 60
  obs_47_l11  head  12 63 60
  obs_47_l12  head  13 63 60
  obs_47_l13  head  14 63 60
  obs_47_l14  head  15 63 60
  obs_47_l15  head  16 63 60
  obs_47_l16  head  17 63 60
  obs_47_l17  head  18 63 60
  obs_47_l18  head  19 63 60
  obs_47_l19  head  20 63 60
  obs_48_l0  head  1 63 59
  obs_48_l1  head  2 63 59
  obs_48_l2  head  3 63 59
  obs_48_l3  head  4 63 59
  obs_48_l4  head  5 63 59
  obs_48_l5  head  6 63 59
  obs_48_l6  head  7 63 59
  obs_48_l7  head  8 63 59
  obs_48_l8  head  9 63 59
  obs_48_l9  head  10 63 59
  obs_48_l10  head  11 63 59
  obs_48_l11  head  12 63 59
  obs_48_l12  head  13 63 59
  obs_48_l13  head  14 63 59
  obs_48_l14  head  15 63 59
  obs_48_l15  head  16 63 59
  obs_48_l16  head  17 63 59
  obs_48_l17  head  18 63 59
  obs_48_l18  head  19 63 59
  obs_48_l19  head  20 63 59
  obs_49_l0  head  1 63 58
  obs_49_l1  head  2 63 58
  obs_49_l2  head  3 63 58
  obs_49_l3  head  4 63 58
  obs_49_l4  head  5 63 58
  obs_49_l5  head  6 63 58
  obs_49_l6  head  7 63 58
  obs_49_l7  head  8 63 58
  obs_49_l8  head  9 63 58
  obs_49_l9  head  10 63 58
  obs_49_l10  head  11 63 58
  obs_49_l11  head  12 63 58
  obs_49_l12  head  13 63 58
  obs_49_l13  head  14 63 58
  obs_49_l14  head  15 63 58
  obs_49_l15  head  16 63 58
  obs_49_l16  head  17 63 58
  obs_49_l17  head  18 63 58
  obs_49_l18  head  19 63 58
  obs_49_l19  head  20 63 58
  obs_50_l0  head  1 63 57
  obs_50_l1  head  2 63 57
  obs_50_l2  head  3 63 57
  obs_50_l3  head  4 63 57
  obs_50_l4  head  5 63 57
  obs_50_l5  head  6 63 57
  obs_50_l6  head  7 63 57
  obs_50_l7  head  8 63 57
  obs_50_l8  head  9 63 57
  obs_50_l9  head  10 63 57
  obs_50_l10  head  11 63 57
  obs_50_l11  head  12 63 57
  obs_50_l12  head  13 63 57
  obs_50_l13  head  14 63 57
  obs_50_l14  head  15 63 57
  obs_50_l15  head  16 63 57
  obs_50_l16  head  17 63 57
  obs_50_l17  head  18 63 57
  obs_50_l18  head  19 63 57
  obs_50_l19  head  20 63 57
  obs_51_l0  head  1 63 56
  obs_51_l1  head  2 63 56
  obs_51_l2  head  3 63 56
  obs_51_l3  head  4 63 56
  obs_51_l4  head  5 63 56
  obs_51_l5  head  6 63 56
  obs_51_l6  head  7 63 56
  obs_51_l7  head  8 63 56
  obs_51_l8  head  9 63 56
  obs_51_l9  head  10 63 56
  obs_51_l10  head  11 63 56
  obs_51_l11  head  12 63 56
  obs_51_l12  head  13 63 56
  obs_51_l13  head  14 63 56
  obs_51_l14  head  15 63 56
  obs_51_l15  head  16 63 56
  obs_51_l16  head  17 63 56
  obs_51_l17  head  18 63 56
  obs_51_l18  head  19 63 56
  obs_51_l19  head  20 63 56
  obs_52_l0  head  1 64 71
  obs_52_l1  head  2 64 71
  obs_52_l2  head  3 64 71
  obs_52_l3  head  4 64 71
  obs_52_l4  head  5 64 71
  obs_52_l5  head  6 64 71
  obs_52_l6  head  7 64 71
  obs_52_l7  head  8 64 71
  obs_52_l8  head  9 64 71
  obs_52_l9  head  10 64 71
  obs_52_l10  head  11 64 71
  obs_52_l11  head  12 64 71
  obs_52_l12  head  13 64 71
  obs_52_l13  head  14 64 71
  obs_52_l14  head  15 64 71
  obs_52_l15  head  16 64 71
  obs_52_l16  head  17 64 71
  obs_52_l17  head  18 64 71
  obs_52_l18  head  19 64 71
  obs_52_l19  head  20 64 71
  obs_53_l0  head  1 64 70
  obs_53_l1  head  2 64 70
  obs_53_l2  head  3 64 70
  obs_53_l3  head  4 64 70
  obs_53_l4  head  5 64 70
  obs_53_l5  head  6 64 70
  obs_53_l6  head  7 64 70
  obs_53_l7  head  8 64 70
  obs_53_l8  head  9 64 70
  obs_53_l9  head  10 64 70
  obs_53_l10  head  11 64 70