# File generated by Flopy version 3.9.1 on 08/26/2025 at 17:03:42.
BEGIN options
  PRINT_OPTION  summary
  COMPLEXITY  moderate
END options

