# File generated by Flopy version 3.9.1 on 09/02/2025 at 12:04:44.
BEGIN options
END options

BEGIN continuous  FILEOUT  outputs/chd_coastal_obs.csv
  bay_0  chd  1 4 20
  bay_1  chd  1 4 21
  bay_2  chd  1 4 22
  bay_3  chd  1 4 23
  bay_4  chd  1 4 24
  bay_5  chd  1 4 25
  bay_6  chd  1 4 26
  bay_7  chd  1 4 27
  bay_8  chd  1 5 19
  bay_9  chd  1 5 20
  bay_10  chd  1 5 21
  bay_11  chd  1 5 22
  bay_12  chd  1 5 23
  bay_13  chd  1 5 24
  bay_14  chd  1 5 25
  bay_15  chd  1 5 26
  bay_16  chd  1 5 27
  bay_17  chd  1 5 28
  bay_18  chd  1 6 18
  bay_19  chd  1 6 19
  bay_20  chd  1 6 20
  bay_21  chd  1 6 21
  bay_22  chd  1 6 22
  bay_23  chd  1 6 23
  bay_24  chd  1 6 24
  bay_25  chd  1 6 25
  bay_26  chd  1 6 26
  bay_27  chd  1 6 27
  bay_28  chd  1 6 28
  bay_29  chd  1 6 29
  bay_30  chd  1 7 17
  bay_31  chd  1 7 18
  bay_32  chd  1 7 19
  bay_33  chd  1 7 20
  bay_34  chd  1 7 21
  bay_35  chd  1 7 22
  bay_36  chd  1 7 23
  bay_37  chd  1 7 24
  bay_38  chd  1 7 25
  bay_39  chd  1 7 26
  bay_40  chd  1 7 27
  bay_41  chd  1 7 28
  bay_42  chd  1 7 29
  bay_43  chd  1 7 30
  bay_44  chd  1 8 16
  bay_45  chd  1 8 17
  bay_46  chd  1 8 18
  bay_47  chd  1 8 19
  bay_48  chd  1 8 20
  bay_49  chd  1 8 21
  bay_50  chd  1 8 22
  bay_51  chd  1 8 23
  bay_52  chd  1 8 24
  bay_53  chd  1 8 25
  bay_54  chd  1 8 26
  bay_55  chd  1 8 27
  bay_56  chd  1 8 28
  bay_57  chd  1 8 29
  bay_58  chd  1 8 30
  bay_59  chd  1 8 31
  bay_60  chd  1 9 16
  bay_61  chd  1 9 17
  bay_62  chd  1 9 18
  bay_63  chd  1 9 19
  bay_64  chd  1 9 20
  bay_65  chd  1 9 21
  bay_66  chd  1 9 22
  bay_67  chd  1 9 23
  bay_68  chd  1 9 24
  bay_69  chd  1 9 25
  bay_70  chd  1 9 26
  bay_71  chd  1 9 27
  bay_72  chd  1 9 28
  bay_73  chd  1 9 29
  bay_74  chd  1 9 30
  bay_75  chd  1 9 31
  bay_76  chd  1 10 16
  bay_77  chd  1 10 17
  bay_78  chd  1 10 18
  bay_79  chd  1 10 19
  bay_80  chd  1 10 20
  bay_81  chd  1 10 21
  bay_82  chd  1 10 22
  bay_83  chd  1 10 27
  bay_84  chd  1 10 28
  bay_85  chd  1 10 29
  bay_86  chd  1 10 30
  bay_87  chd  1 10 31
  bay_88  chd  1 11 16
  bay_89  chd  1 11 17
  bay_90  chd  1 11 18
  bay_91  chd  1 11 19
  bay_92  chd  1 11 20
  bay_93  chd  1 11 21
  bay_94  chd  1 11 28
  bay_95  chd  1 11 29
  bay_96  chd  1 11 30
  bay_97  chd  1 11 31
  bay_98  chd  1 11 32
  bay_99  chd  1 12 16
  bay_100  chd  1 12 17
  bay_101  chd  1 12 18
  bay_102  chd  1 12 28
  bay_103  chd  1 12 29
  bay_104  chd  1 12 30
  bay_105  chd  1 12 31
  bay_106  chd  1 12 32
  bay_107  chd  1 12 33
  bay_108  chd  1 13 16
  bay_109  chd  1 13 17
  bay_110  chd  1 13 28
  bay_111  chd  1 13 29
  bay_112  chd  1 13 30
  bay_113  chd  1 13 31
  bay_114  chd  1 13 32
  bay_115  chd  1 13 33
  bay_116  chd  1 13 34
  bay_117  chd  1 14 28
  bay_118  chd  1 14 29
  bay_119  chd  1 14 30
  bay_120  chd  1 14 31
  bay_121  chd  1 14 32
  bay_122  chd  1 14 33
  bay_123  chd  1 14 34
  bay_124  chd  1 14 35
  bay_125  chd  1 14 46
  bay_126  chd  1 14 47
  bay_127  chd  1 14 48
  bay_128  chd  1 14 49
  bay_129  chd  1 15 28
  bay_130  chd  1 15 29
  bay_131  chd  1 15 30
  bay_132  chd  1 15 31
  bay_133  chd  1 15 32
  bay_134  chd  1 15 33
  bay_135  chd  1 15 34
  bay_136  chd  1 15 35
  bay_137  chd  1 15 45
  bay_138  chd  1 15 46
  bay_139  chd  1 15 47
  bay_140  chd  1 15 48
  bay_141  chd  1 15 49
  bay_142  chd  1 15 50
  bay_143  chd  1 16 28
  bay_144  chd  1 16 29
  bay_145  chd  1 16 30
  bay_146  chd  1 16 31
  bay_147  chd  1 16 32
  bay_148  chd  1 16 33
  bay_149  chd  1 16 34
  bay_150  chd  1 16 35
  bay_151  chd  1 16 42
  bay_152  chd  1 16 43
  bay_153  chd  1 16 44
  bay_154  chd  1 16 45
  bay_155  chd  1 16 46
  bay_156  chd  1 16 47
  bay_157  chd  1 16 48
  bay_158  chd  1 16 49
  bay_159  chd  1 16 50
  bay_160  chd  1 16 51
  bay_161  chd  1 17 27
  bay_162  chd  1 17 29
  bay_163  chd  1 17 30
  bay_164  chd  1 17 31
  bay_165  chd  1 17 32
  bay_166  chd  1 17 33
  bay_167  chd  1 17 34
  bay_168  chd  1 17 35
  bay_169  chd  1 17 36
  bay_170  chd  1 17 41
  bay_171  chd  1 17 42
  bay_172  chd  1 17 43
  bay_173  chd  1 17 44
  bay_174  chd  1 17 45
  bay_175  chd  1 17 46
  bay_176  chd  1 17 47
  bay_177  chd  1 17 48
  bay_178  chd  1 17 49
  bay_179  chd  1 17 50
  bay_180  chd  1 17 51
  bay_181  chd  1 17 52
  bay_182  chd  1 18 28
  bay_183  chd  1 18 30
  bay_184  chd  1 18 31
  bay_185  chd  1 18 32
  bay_186  chd  1 18 33
  bay_187  chd  1 18 34
  bay_188  chd  1 18 35
  bay_189  chd  1 18 36
  bay_190  chd  1 18 37
  bay_191  chd  1 18 38
  bay_192  chd  1 18 39
  bay_193  chd  1 18 40
  bay_194  chd  1 18 41
  bay_195  chd  1 18 42
  bay_196  chd  1 18 43
  bay_197  chd  1 18 44
  bay_198  chd  1 18 45
  bay_199  chd  1 18 46
  bay_200  chd  1 18 47
  bay_201  chd  1 18 48
  bay_202  chd  1 18 49
  bay_203  chd  1 18 50
  bay_204  chd  1 18 51
  bay_205  chd  1 18 52
  bay_206  chd  1 18 53
  bay_207  chd  1 19 30
  bay_208  chd  1 19 31
  bay_209  chd  1 19 32
  bay_210  chd  1 19 33
  bay_211  chd  1 19 34
  bay_212  chd  1 19 35
  bay_213  chd  1 19 36
  bay_214  chd  1 19 37
  bay_215  chd  1 19 38
  bay_216  chd  1 19 39
  bay_217  chd  1 19 40
  bay_218  chd  1 19 41
  bay_219  chd  1 19 42
  bay_220  chd  1 19 43
  bay_221  chd  1 19 44
  bay_222  chd  1 19 45
  bay_223  chd  1 19 46
  bay_224  chd  1 19 47
  bay_225  chd  1 19 48
  bay_226  chd  1 19 49
  bay_227  chd  1 19 50
  bay_228  chd  1 19 51
  bay_229  chd  1 19 52
  bay_230  chd  1 19 53
  bay_231  chd  1 19 54
  bay_232  chd  1 20 31
  bay_233  chd  1 20 32
  bay_234  chd  1 20 33
  bay_235  chd  1 20 34
  bay_236  chd  1 20 35
  bay_237  chd  1 20 36
  bay_238  chd  1 20 37
  bay_239  chd  1 20 38
  bay_240  chd  1 20 39
  bay_241  chd  1 20 40
  bay_242  chd  1 20 41
  bay_243  chd  1 20 42
  bay_244  chd  1 20 43
  bay_245  chd  1 20 44
  bay_246  chd  1 20 45
  bay_247  chd  1 20 46
  bay_248  chd  1 20 47
  bay_249  chd  1 20 48
  bay_250  chd  1 20 49
  bay_251  chd  1 20 50
  bay_252  chd  1 20 51
  bay_253  chd  1 20 52
  bay_254  chd  1 20 53
  bay_255  chd  1 20 54
  bay_256  chd  1 20 55
  bay_257  chd  1 21 28
  bay_258  chd  1 21 29
  bay_259  chd  1 21 32
  bay_260  chd  1 21 33
  bay_261  chd  1 21 34
  bay_262  chd  1 21 35
  bay_263  chd  1 21 36
  bay_264  chd  1 21 37
  bay_265  chd  1 21 38
  bay_266  chd  1 21 39
  bay_267  chd  1 21 40
  bay_268  chd  1 21 41
  bay_269  chd  1 21 42
  bay_270  chd  1 21 43
  bay_271  chd  1 21 44
  bay_272  chd  1 21 45
  bay_273  chd  1 21 46
  bay_274  chd  1 21 47
  bay_275  chd  1 21 48
  bay_276  chd  1 21 49
  bay_277  chd  1 21 50
  bay_278  chd  1 21 51
  bay_279  chd  1 21 52
  bay_280  chd  1 21 53
  bay_281  chd  1 21 54
  bay_282  chd  1 21 55
  bay_283  chd  1 21 56
  bay_284  chd  1 22 28
  bay_285  chd  1 22 29
  bay_286  chd  1 22 30
  bay_287  chd  1 22 33
  bay_288  chd  1 22 34
  bay_289  chd  1 22 35
  bay_290  chd  1 22 36
  bay_291  chd  1 22 37
  bay_292  chd  1 22 38
  bay_293  chd  1 22 39
  bay_294  chd  1 22 40
  bay_295  chd  1 22 41
  bay_296  chd  1 22 42
  bay_297  chd  1 22 43
  bay_298  chd  1 22 44
  bay_299  chd  1 22 45
  bay_300  chd  1 22 46
  bay_301  chd  1 22 47
  bay_302  chd  1 22 48
  bay_303  chd  1 22 49
  bay_304  chd  1 22 50
  bay_305  chd  1 22 51
  bay_306  chd  1 22 52
  bay_307  chd  1 22 53
  bay_308  chd  1 22 54
  bay_309  chd  1 22 55
  bay_310  chd  1 22 56
  bay_311  chd  1 22 57
  bay_312  chd  1 22 58
  bay_313  chd  1 22 59
  bay_314  chd  1 22 60
  bay_315  chd  1 22 61
  bay_316  chd  1 22 62
  bay_317  chd  1 22 63
  bay_318  chd  1 22 64
  bay_319  chd  1 22 65
  bay_320  chd  1 23 29
  bay_321  chd  1 23 30
  bay_322  chd  1 23 31
  bay_323  chd  1 23 34
  bay_324  chd  1 23 35
  bay_325  chd  1 23 36
  bay_326  chd  1 23 37
  bay_327  chd  1 23 38
  bay_328  chd  1 23 39
  bay_329  chd  1 23 40
  bay_330  chd  1 23 41
  bay_331  chd  1 23 42
  bay_332  chd  1 23 43
  bay_333  chd  1 23 44
  bay_334  chd  1 23 45
  bay_335  chd  1 23 46
  bay_336  chd  1 23 47
  bay_337  chd  1 23 48
  bay_338  chd  1 23 49
  bay_339  chd  1 23 50
  bay_340  chd  1 23 51
  bay_341  chd  1 23 52
  bay_342  chd  1 23 53
  bay_343  chd  1 23 54
  bay_344  chd  1 23 55
  bay_345  chd  1 23 56
  bay_346  chd  1 23 57
  bay_347  chd  1 23 58
  bay_348  chd  1 23 59
  bay_349  chd  1 23 60
  bay_350  chd  1 23 61
  bay_351  chd  1 23 62
  bay_352  chd  1 23 63
  bay_353  chd  1 23 64
  bay_354  chd  1 23 65
  bay_355  chd  1 23 66
  bay_356  chd  1 24 29
  bay_357  chd  1 24 30
  bay_358  chd  1 24 31
  bay_359  chd  1 24 32
  bay_360  chd  1 24 35
  bay_361  chd  1 24 36
  bay_362  chd  1 24 37
  bay_363  chd  1 24 38
  bay_364  chd  1 24 39
  bay_365  chd  1 24 40
  bay_366  chd  1 24 41
  bay_367  chd  1 24 42
  bay_368  chd  1 24 43
  bay_369  chd  1 24 44
  bay_370  chd  1 24 45
  bay_371  chd  1 24 46
  bay_372  chd  1 24 47
  bay_373  chd  1 24 48
  bay_374  chd  1 24 49
  bay_375  chd  1 24 50
  bay_376  chd  1 24 51
  bay_377  chd  1 24 52
  bay_378  chd  1 24 53
  bay_379  chd  1 24 54
  bay_380  chd  1 24 55
  bay_381  chd  1 24 56
  bay_382  chd  1 24 57
  bay_383  chd  1 24 58
  bay_384  chd  1 24 59
  bay_385  chd  1 24 60
  bay_386  chd  1 24 61
  bay_387  chd  1 24 62
  bay_388  chd  1 24 63
  bay_389  chd  1 24 64
  bay_390  chd  1 24 65
  bay_391  chd  1 24 66
  bay_392  chd  1 24 67
  bay_393  chd  1 24 68
  bay_394  chd  1 24 69
  bay_395  chd  1 25 31
  bay_396  chd  1 25 32
  bay_397  chd  1 25 33
  bay_398  chd  1 25 36
  bay_399  chd  1 25 37
  bay_400  chd  1 25 38
  bay_401  chd  1 25 39
  bay_402  chd  1 25 40
  bay_403  chd  1 25 41
  bay_404  chd  1 25 42
  bay_405  chd  1 25 43
  bay_406  chd  1 25 44
  bay_407  chd  1 25 45
  bay_408  chd  1 25 46
  bay_409  chd  1 25 47
  bay_410  chd  1 25 48
  bay_411  chd  1 25 49
  bay_412  chd  1 25 50
  bay_413  chd  1 25 51
  bay_414  chd  1 25 52
  bay_415  chd  1 25 53
  bay_416  chd  1 25 54
  bay_417  chd  1 25 55
  bay_418  chd  1 25 56
  bay_419  chd  1 25 57
  bay_420  chd  1 25 58
  bay_421  chd  1 25 59
  bay_422  chd  1 25 60
  bay_423  chd  1 25 61
  bay_424  chd  1 25 62
  bay_425  chd  1 25 63
  bay_426  chd  1 25 64
  bay_427  chd  1 25 65
  bay_428  chd  1 25 66
  bay_429  chd  1 25 67
  bay_430  chd  1 25 68
  bay_431  chd  1 25 69
  bay_432  chd  1 25 70
  bay_433  chd  1 26 31
  bay_434  chd  1 26 32
  bay_435  chd  1 26 33
  bay_436  chd  1 26 34
  bay_437  chd  1 26 37
  bay_438  chd  1 26 38
  bay_439  chd  1 26 39
  bay_440  chd  1 26 40
  bay_441  chd  1 26 41
  bay_442  chd  1 26 42
  bay_443  chd  1 26 43
  bay_444  chd  1 26 44
  bay_445  chd  1 26 45
  bay_446  chd  1 26 46
  bay_447  chd  1 26 47
  bay_448  chd  1 26 48
  bay_449  chd  1 26 49
  bay_450  chd  1 26 50
  bay_451  chd  1 26 51
  bay_452  chd  1 26 52
  bay_453  chd  1 26 53
  bay_454  chd  1 26 54
  bay_455  chd  1 26 55
  bay_456  chd  1 26 56
  bay_457  chd  1 26 57
  bay_458  chd  1 26 58
  bay_459  chd  1 26 59
  bay_460  chd  1 26 60
  bay_461  chd  1 26 61
  bay_462  chd  1 26 62
  bay_463  chd  1 26 63
  bay_464  chd  1 26 64
  bay_465  chd  1 26 65
  bay_466  chd  1 26 66
  bay_467  chd  1 26 67
  bay_468  chd  1 26 68
  bay_469  chd  1 26 69
  bay_470  chd  1 26 70
  bay_471  chd  1 26 71
  bay_472  chd  1 27 31
  bay_473  chd  1 27 32
  bay_474  chd  1 27 33
  bay_475  chd  1 27 34
  bay_476  chd  1 27 39
  bay_477  chd  1 27 40
  bay_478  chd  1 27 41
  bay_479  chd  1 27 42
  bay_480  chd  1 27 43
  bay_481  chd  1 27 44
  bay_482  chd  1 27 45
  bay_483  chd  1 27 46
  bay_484  chd  1 27 47
  bay_485  chd  1 27 48
  bay_486  chd  1 27 49
  bay_487  chd  1 27 50
  bay_488  chd  1 27 53
  bay_489  chd  1 27 54
  bay_490  chd  1 27 55
  bay_491  chd  1 27 56
  bay_492  chd  1 27 57
  bay_493  chd  1 27 58
  bay_494  chd  1 27 59
  bay_495  chd  1 27 60
  bay_496  chd  1 27 61
  bay_497  chd  1 27 62
  bay_498  chd  1 27 63
  bay_499  chd  1 27 64
  bay_500  chd  1 27 65
  bay_501  chd  1 27 66
  bay_502  chd  1 27 67
  bay_503  chd  1 27 68
  bay_504  chd  1 27 69
  bay_505  chd  1 27 70
  bay_506  chd  1 27 71
  bay_507  chd  1 27 72
  bay_508  chd  1 28 31
  bay_509  chd  1 28 32
  bay_510  chd  1 28 33
  bay_511  chd  1 28 34
  bay_512  chd  1 28 35
  bay_513  chd  1 28 36
  bay_514  chd  1 28 40
  bay_515  chd  1 28 41
  bay_516  chd  1 28 42
  bay_517  chd  1 28 43
  bay_518  chd  1 28 44
  bay_519  chd  1 28 45
  bay_520  chd  1 28 46
  bay_521  chd  1 28 47
  bay_522  chd  1 28 48
  bay_523  chd  1 28 49
  bay_524  chd  1 28 50
  bay_525  chd  1 28 59
  bay_526  chd  1 28 60
  bay_527  chd  1 28 61
  bay_528  chd  1 28 62
  bay_529  chd  1 28 63
  bay_530  chd  1 28 64
  bay_531  chd  1 28 65
  bay_532  chd  1 28 66
  bay_533  chd  1 28 67
  bay_534  chd  1 28 68
  bay_535  chd  1 28 69
  bay_536  chd  1 28 70
  bay_537  chd  1 28 71
  bay_538  chd  1 28 72
  bay_539  chd  1 28 73
  bay_540  chd  1 29 30
  bay_541  chd  1 29 31
  bay_542  chd  1 29 32
  bay_543  chd  1 29 33
  bay_544  chd  1 29 34
  bay_545  chd  1 29 35
  bay_546  chd  1 29 36
  bay_547  chd  1 29 37
  bay_548  chd  1 29 38
  bay_549  chd  1 29 42
  bay_550  chd  1 29 43
  bay_551  chd  1 29 44
  bay_552  chd  1 29 45
  bay_553  chd  1 29 46
  bay_554  chd  1 29 47
  bay_555  chd  1 29 48
  bay_556  chd  1 29 49
  bay_557  chd  1 29 50
  bay_558  chd  1 29 51
  bay_559  chd  1 29 64
  bay_560  chd  1 29 65
  bay_561  chd  1 29 66
  bay_562  chd  1 29 67
  bay_563  chd  1 29 68
  bay_564  chd  1 29 69
  bay_565  chd  1 29 70
  bay_566  chd  1 29 71
  bay_567  chd  1 29 72
  bay_568  chd  1 29 73
  bay_569  chd  1 29 74
  bay_570  chd  1 30 30
  bay_571  chd  1 30 31
  bay_572  chd  1 30 32
  bay_573  chd  1 30 33
  bay_574  chd  1 30 34
  bay_575  chd  1 30 35
  bay_576  chd  1 30 36
  bay_577  chd  1 30 37
  bay_578  chd  1 30 38
  bay_579  chd  1 30 39
  bay_580  chd  1 30 40
  bay_581  chd  1 30 48
  bay_582  chd  1 30 49
  bay_583  chd  1 30 50
  bay_584  chd  1 30 51
  bay_585  chd  1 30 67
  bay_586  chd  1 30 68
  bay_587  chd  1 30 69
  bay_588  chd  1 30 70
  bay_589  chd  1 30 71
  bay_590  chd  1 30 72
  bay_591  chd  1 30 73
  bay_592  chd  1 30 74
  bay_593  chd  1 30 75
  bay_594  chd  1 31 31
  bay_595  chd  1 31 32
  bay_596  chd  1 31 33
  bay_597  chd  1 31 34
  bay_598  chd  1 31 35
  bay_599  chd  1 31 36
  bay_600  chd  1 31 37
  bay_601  chd  1 31 38
  bay_602  chd  1 31 39
  bay_603  chd  1 31 40
  bay_604  chd  1 31 41
  bay_605  chd  1 31 42
  bay_606  chd  1 31 48
  bay_607  chd  1 31 49
  bay_608  chd  1 31 50
  bay_609  chd  1 31 51
  bay_610  chd  1 31 52
  bay_611  chd  1 31 53
  bay_612  chd  1 31 54
  bay_613  chd  1 31 68
  bay_614  chd  1 31 69
  bay_615  chd  1 31 70
  bay_616  chd  1 31 71
  bay_617  chd  1 31 72
  bay_618  chd  1 31 73
  bay_619  chd  1 31 74
  bay_620  chd  1 31 75
  bay_621  chd  1 31 76
  bay_622  chd  1 32 31
  bay_623  chd  1 32 32
  bay_624  chd  1 32 33
  bay_625  chd  1 32 34
  bay_626  chd  1 32 35
  bay_627  chd  1 32 36
  bay_628  chd  1 32 37
  bay_629  chd  1 32 38
  bay_630  chd  1 32 39
  bay_631  chd  1 32 40
  bay_632  chd  1 32 41
  bay_633  chd  1 32 42
  bay_634  chd  1 32 43
  bay_635  chd  1 32 48
  bay_636  chd  1 32 49
  bay_637  chd  1 32 50
  bay_638  chd  1 32 51
  bay_639  chd  1 32 52
  bay_640  chd  1 32 53
  bay_641  chd  1 32 54
  bay_642  chd  1 32 55
  bay_643  chd  1 32 56
  bay_644  chd  1 32 57
  bay_645  chd  1 32 58
  bay_646  chd  1 32 69
  bay_647  chd  1 32 70
  bay_648  chd  1 32 71
  bay_649  chd  1 32 72
  bay_650  chd  1 32 73
  bay_651  chd  1 32 74
  bay_652  chd  1 32 75
  bay_653  chd  1 32 76
  bay_654  chd  1 32 77
  bay_655  chd  1 33 31
  bay_656  chd  1 33 32
  bay_657  chd  1 33 33
  bay_658  chd  1 33 34
  bay_659  chd  1 33 35
  bay_660  chd  1 33 36
  bay_661  chd  1 33 37
  bay_662  chd  1 33 38
  bay_663  chd  1 33 39
  bay_664  chd  1 33 40
  bay_665  chd  1 33 41
  bay_666  chd  1 33 42
  bay_667  chd  1 33 43
  bay_668  chd  1 33 44
  bay_669  chd  1 33 45
  bay_670  chd  1 33 48
  bay_671  chd  1 33 49
  bay_672  chd  1 33 50
  bay_673  chd  1 33 51
  bay_674  chd  1 33 52
  bay_675  chd  1 33 53
  bay_676  chd  1 33 54
  bay_677  chd  1 33 55
  bay_678  chd  1 33 56
  bay_679  chd  1 33 57
  bay_680  chd  1 33 58
  bay_681  chd  1 33 59
  bay_682  chd  1 33 65
  bay_683  chd  1 33 66
  bay_684  chd  1 33 67
  bay_685  chd  1 33 68
  bay_686  chd  1 33 70
  bay_687  chd  1 33 71
  bay_688  chd  1 33 72
  bay_689  chd  1 33 73
  bay_690  chd  1 33 74
  bay_691  chd  1 33 75
  bay_692  chd  1 33 76
  bay_693  chd  1 33 77
  bay_694  chd  1 34 31
  bay_695  chd  1 34 32
  bay_696  chd  1 34 33
  bay_697  chd  1 34 34
  bay_698  chd  1 34 35
  bay_699  chd  1 34 36
  bay_700  chd  1 34 37
  bay_701  chd  1 34 38
  bay_702  chd  1 34 39
  bay_703  chd  1 34 40
  bay_704  chd  1 34 41
  bay_705  chd  1 34 42
  bay_706  chd  1 34 43
  bay_707  chd  1 34 44
  bay_708  chd  1 34 45
  bay_709  chd  1 34 49
  bay_710  chd  1 34 50
  bay_711  chd  1 34 51
  bay_712  chd  1 34 52
  bay_713  chd  1 34 53
  bay_714  chd  1 34 54
  bay_715  chd  1 34 55
  bay_716  chd  1 34 56
  bay_717  chd  1 34 57
  bay_718  chd  1 34 58
  bay_719  chd  1 34 59
  bay_720  chd  1 34 60
  bay_721  chd  1 34 64
  bay_722  chd  1 34 65
  bay_723  chd  1 34 66
  bay_724  chd  1 34 67
  bay_725  chd  1 34 68
  bay_726  chd  1 34 71
  bay_727  chd  1 34 72
  bay_728  chd  1 34 73
  bay_729  chd  1 34 74
  bay_730  chd  1 34 75
  bay_731  chd  1 34 76
  bay_732  chd  1 34 77
  bay_733  chd  1 35 31
  bay_734  chd  1 35 32
  bay_735  chd  1 35 33
  bay_736  chd  1 35 34
  bay_737  chd  1 35 35
  bay_738  chd  1 35 36
  bay_739  chd  1 35 37
  bay_740  chd  1 35 38
  bay_741  chd  1 35 39
  bay_742  chd  1 35 40
  bay_743  chd  1 35 41
  bay_744  chd  1 35 42
  bay_745  chd  1 35 43
  bay_746  chd  1 35 44
  bay_747  chd  1 35 45
  bay_748  chd  1 35 46
  bay_749  chd  1 35 47
  bay_750  chd  1 35 50
  bay_751  chd  1 35 51
  bay_752  chd  1 35 52
  bay_753  chd  1 35 53
  bay_754  chd  1 35 54
  bay_755  chd  1 35 55
  bay_756  chd  1 35 56
  bay_757  chd  1 35 57
  bay_758  chd  1 35 58
  bay_759  chd  1 35 59
  bay_760  chd  1 35 60
  bay_761  chd  1 35 63
  bay_762  chd  1 35 64
  bay_763  chd  1 35 65
  bay_764  chd  1 35 66
  bay_765  chd  1 35 67
  bay_766  chd  1 35 72
  bay_767  chd  1 35 73
  bay_768  chd  1 35 74
  bay_769  chd  1 35 75
  bay_770  chd  1 35 76
  bay_771  chd  1 35 77
  bay_772  chd  1 36 31
  bay_773  chd  1 36 32
  bay_774  chd  1 36 33
  bay_775  chd  1 36 34
  bay_776  chd  1 36 35
  bay_777  chd  1 36 36
  bay_778  chd  1 36 37
  bay_779  chd  1 36 38
  bay_780  chd  1 36 39
  bay_781  chd  1 36 40
  bay_782  chd  1 36 41
  bay_783  chd  1 36 42
  bay_784  chd  1 36 43
  bay_785  chd  1 36 44
  bay_786  chd  1 36 45
  bay_787  chd  1 36 46
  bay_788  chd  1 36 47
  bay_789  chd  1 36 48
  bay_790  chd  1 36 49
  bay_791  chd  1 36 50
  bay_792  chd  1 36 51
  bay_793  chd  1 36 52
  bay_794  chd  1 36 53
  bay_795  chd  1 36 54
  bay_796  chd  1 36 55
  bay_797  chd  1 36 56
  bay_798  chd  1 36 57
  bay_799  chd  1 36 58
  bay_800  chd  1 36 59
  bay_801  chd  1 36 60
  bay_802  chd  1 36 61
  bay_803  chd  1 36 62
  bay_804  chd  1 36 63
  bay_805  chd  1 36 64
  bay_806  chd  1 36 65
  bay_807  chd  1 36 66
  bay_808  chd  1 36 67
  bay_809  chd  1 36 73
  bay_810  chd  1 36 75
  bay_811  chd  1 36 76
  bay_812  chd  1 36 77
  bay_813  chd  1 37 36
  bay_814  chd  1 37 37
  bay_815  chd  1 37 38
  bay_816  chd  1 37 39
  bay_817  chd  1 37 40
  bay_818  chd  1 37 41
  bay_819  chd  1 37 42
  bay_820  chd  1 37 43
  bay_821  chd  1 37 44
  bay_822  chd  1 37 45
  bay_823  chd  1 37 46
  bay_824  chd  1 37 47
  bay_825  chd  1 37 48
  bay_826  chd  1 37 49
  bay_827  chd  1 37 50
  bay_828  chd  1 37 51
  bay_829  chd  1 37 52
  bay_830  chd  1 37 53
  bay_831  chd  1 37 54
  bay_832  chd  1 37 55
  bay_833  chd  1 37 56
  bay_834  chd  1 37 57
  bay_835  chd  1 37 58
  bay_836  chd  1 37 59
  bay_837  chd  1 37 60
  bay_838  chd  1 37 61
  bay_839  chd  1 37 62
  bay_840  chd  1 37 63
  bay_841  chd  1 37 64
  bay_842  chd  1 37 65
  bay_843  chd  1 37 66
  bay_844  chd  1 37 67
  bay_845  chd  1 37 76
  bay_846  chd  1 37 77
  bay_847  chd  1 38 37
  bay_848  chd  1 38 38
  bay_849  chd  1 38 39
  bay_850  chd  1 38 40
  bay_851  chd  1 38 41
  bay_852  chd  1 38 42
  bay_853  chd  1 38 43
  bay_854  chd  1 38 44
  bay_855  chd  1 38 45
  bay_856  chd  1 38 46
  bay_857  chd  1 38 47
  bay_858  chd  1 38 48
  bay_859  chd  1 38 49
  bay_860  chd  1 38 50
  bay_861  chd  1 38 51
  bay_862  chd  1 38 52
  bay_863  chd  1 38 53
  bay_864  chd  1 38 54
  bay_865  chd  1 38 55
  bay_866  chd  1 38 56
  bay_867  chd  1 38 57
  bay_868  chd  1 38 58
  bay_869  chd  1 38 59
  bay_870  chd  1 38 60
  bay_871  chd  1 38 61
  bay_872  chd  1 38 62
  bay_873  chd  1 39 37
  bay_874  chd  1 39 38
  bay_875  chd  1 39 39
  bay_876  chd  1 39 40
  bay_877  chd  1 39 41
  bay_878  chd  1 39 42
  bay_879  chd  1 39 43
  bay_880  chd  1 39 44
  bay_881  chd  1 39 45
  bay_882  chd  1 39 46
  bay_883  chd  1 39 47
  bay_884  chd  1 39 48
  bay_885  chd  1 39 49
  bay_886  chd  1 39 50
  bay_887  chd  1 39 51
  bay_888  chd  1 39 52
  bay_889  chd  1 39 53
  bay_890  chd  1 39 54
  bay_891  chd  1 39 55
  bay_892  chd  1 39 56
  bay_893  chd  1 39 57
  bay_894  chd  1 39 58
  bay_895  chd  1 39 59
  bay_896  chd  1 39 60
  bay_897  chd  1 39 61
  bay_898  chd  1 39 62
  bay_899  chd  1 40 37
  bay_900  chd  1 40 38
  bay_901  chd  1 40 39
  bay_902  chd  1 40 40
  bay_903  chd  1 40 41
  bay_904  chd  1 40 42
  bay_905  chd  1 40 43
  bay_906  chd  1 40 44
  bay_907  chd  1 40 45
  bay_908  chd  1 40 46
  bay_909  chd  1 40 47
  bay_910  chd  1 40 48
  bay_911  chd  1 40 49
  bay_912  chd  1 40 50
  bay_913  chd  1 40 51
  bay_914  chd  1 40 52
  bay_915  chd  1 40 53
  bay_916  chd  1 40 54
  bay_917  chd  1 40 55
  bay_918  chd  1 40 56
  bay_919  chd  1 40 57
  bay_920  chd  1 40 58
  bay_921  chd  1 40 59
  bay_922  chd  1 40 60
  bay_923  chd  1 40 61
  bay_924  chd  1 40 62
  bay_925  chd  1 41 37
  bay_926  chd  1 41 38
  bay_927  chd  1 41 39
  bay_928  chd  1 41 40
  bay_929  chd  1 41 41
  bay_930  chd  1 41 42
  bay_931  chd  1 41 43
  bay_932  chd  1 41 44
  bay_933  chd  1 41 45
  bay_934  chd  1 41 46
  bay_935  chd  1 41 47
  bay_936  chd  1 41 48
  bay_937  chd  1 41 49
  bay_938  chd  1 41 50
  bay_939  chd  1 41 51
  bay_940  chd  1 41 52
  bay_941  chd  1 41 53
  bay_942  chd  1 41 54
  bay_943  chd  1 41 55
  bay_944  chd  1 41 56
  bay_945  chd  1 41 57
  bay_946  chd  1 41 58
  bay_947  chd  1 41 59
  bay_948  chd  1 41 60
  bay_949  chd  1 41 61
  bay_950  chd  1 41 62
  bay_951  chd  1 42 38
  bay_952  chd  1 42 39
  bay_953  chd  1 42 40
  bay_954  chd  1 42 41
  bay_955  chd  1 42 42
  bay_956  chd  1 42 43
  bay_957  chd  1 42 44
  bay_958  chd  1 42 45
  bay_959  chd  1 42 46
  bay_960  chd  1 42 47
  bay_961  chd  1 42 48
  bay_962  chd  1 42 49
  bay_963  chd  1 42 50
  bay_964  chd  1 42 51
  bay_965  chd  1 42 52
  bay_966  chd  1 42 53
  bay_967  chd  1 42 54
  bay_968  chd  1 42 55
  bay_969  chd  1 42 56
  bay_970  chd  1 42 57
  bay_971  chd  1 42 58
  bay_972  chd  1 42 59
  bay_973  chd  1 42 60
  bay_974  chd  1 42 61
  bay_975  chd  1 42 62
  bay_976  chd  1 43 38
  bay_977  chd  1 43 39
  bay_978  chd  1 43 40
  bay_979  chd  1 43 41
  bay_980  chd  1 43 42
  bay_981  chd  1 43 43
  bay_982  chd  1 43 44
  bay_983  chd  1 43 45
  bay_984  chd  1 43 46
  bay_985  chd  1 43 47
  bay_986  chd  1 43 48
  bay_987  chd  1 43 49
  bay_988  chd  1 43 50
  bay_989  chd  1 43 51
  bay_990  chd  1 43 52
  bay_991  chd  1 43 53
  bay_992  chd  1 43 54
  bay_993  chd  1 43 55
  bay_994  chd  1 43 56
  bay_995  chd  1 43 57
  bay_996  chd  1 43 58
  bay_997  chd  1 43 59
  bay_998  chd  1 43 60
  bay_999  chd  1 43 61
  bay_1000  chd  1 43 62
  bay_1001  chd  1 44 38
  bay_1002  chd  1 44 39
  bay_1003  chd  1 44 40
  bay_1004  chd  1 44 41
  bay_1005  chd  1 44 42
  bay_1006  chd  1 44 43
  bay_1007  chd  1 44 44
  bay_1008  chd  1 44 45
  bay_1009  chd  1 44 46
  bay_1010  chd  1 44 47
  bay_1011  chd  1 44 48
  bay_1012  chd  1 44 49
  bay_1013  chd  1 44 50
  bay_1014  chd  1 44 51
  bay_1015  chd  1 44 52
  bay_1016  chd  1 44 53
  bay_1017  chd  1 44 54
  bay_1018  chd  1 44 55
  bay_1019  chd  1 44 56
  bay_1020  chd  1 44 57
  bay_1021  chd  1 44 58
  bay_1022  chd  1 44 59
  bay_1023  chd  1 44 60
  bay_1024  chd  1 44 61
  bay_1025  chd  1 44 62
  bay_1026  chd  1 45 42
  bay_1027  chd  1 45 43
  bay_1028  chd  1 45 44
  bay_1029  chd  1 45 45
  bay_1030  chd  1 45 46
  bay_1031  chd  1 45 47
  bay_1032  chd  1 45 48
  bay_1033  chd  1 45 49
  bay_1034  chd  1 45 50
  bay_1035  chd  1 45 51
  bay_1036  chd  1 45 52
  bay_1037  chd  1 45 53
  bay_1038  chd  1 45 54
  bay_1039  chd  1 45 55
  bay_1040  chd  1 45 56
  bay_1041  chd  1 45 57
  bay_1042  chd  1 45 58
  bay_1043  chd  1 45 59
  bay_1044  chd  1 45 60
  bay_1045  chd  1 45 61
  bay_1046  chd  1 45 62
  bay_1047  chd  1 45 63
  bay_1048  chd  1 46 43
  bay_1049  chd  1 46 44
  bay_1050  chd  1 46 45
  bay_1051  chd  1 46 46
  bay_1052  chd  1 46 47
  bay_1053  chd  1 46 48
  bay_1054  chd  1 46 49
  bay_1055  chd  1 46 50
  bay_1056  chd  1 46 51
  bay_1057  chd  1 46 52
  bay_1058  chd  1 46 53
  bay_1059  chd  1 46 54
  bay_1060  chd  1 46 55
  bay_1061  chd  1 46 56
  bay_1062  chd  1 46 57
  bay_1063  chd  1 46 58
  bay_1064  chd  1 46 59
  bay_1065  chd  1 46 60
  bay_1066  chd  1 46 61
  bay_1067  chd  1 46 62
  bay_1068  chd  1 46 63
  bay_1069  chd  1 47 44
  bay_1070  chd  1 47 45
  bay_1071  chd  1 47 46
  bay_1072  chd  1 47 47
  bay_1073  chd  1 47 48
  bay_1074  chd  1 47 49
  bay_1075  chd  1 47 50
  bay_1076  chd  1 47 51
  bay_1077  chd  1 47 52
  bay_1078  chd  1 47 53
  bay_1079  chd  1 47 54
  bay_1080  chd  1 47 55
  bay_1081  chd  1 47 56
  bay_1082  chd  1 47 57
  bay_1083  chd  1 47 58
  bay_1084  chd  1 47 59
  bay_1085  chd  1 47 60
  bay_1086  chd  1 47 61
  bay_1087  chd  1 47 62
  bay_1088  chd  1 47 63
  bay_1089  chd  1 48 45
  bay_1090  chd  1 48 46
  bay_1091  chd  1 48 47
  bay_1092  chd  1 48 48
  bay_1093  chd  1 48 49
  bay_1094  chd  1 48 50
  bay_1095  chd  1 48 51
  bay_1096  chd  1 48 52
  bay_1097  chd  1 48 53
  bay_1098  chd  1 48 54
  bay_1099  chd  1 48 55
  bay_1100  chd  1 48 56
  bay_1101  chd  1 48 57
  bay_1102  chd  1 48 58
  bay_1103  chd  1 48 59
  bay_1104  chd  1 48 60
  bay_1105  chd  1 48 61
  bay_1106  chd  1 48 62
  bay_1107  chd  1 48 63
  bay_1108  chd  1 49 46
  bay_1109  chd  1 49 47
  bay_1110  chd  1 49 48
  bay_1111  chd  1 49 49
  bay_1112  chd  1 49 50
  bay_1113  chd  1 49 51
  bay_1114  chd  1 49 52
  bay_1115  chd  1 49 53
  bay_1116  chd  1 49 54
  bay_1117  chd  1 49 55
  bay_1118  chd  1 49 56
  bay_1119  chd  1 49 57
  bay_1120  chd  1 49 58
  bay_1121  chd  1 49 59
  bay_1122  chd  1 49 60
  bay_1123  chd  1 49 61
  bay_1124  chd  1 49 62
  bay_1125  chd  1 49 63
  bay_1126  chd  1 50 47
  bay_1127  chd  1 50 48
  bay_1128  chd  1 50 49
  bay_1129  chd  1 50 50
  bay_1130  chd  1 50 51
  bay_1131  chd  1 50 52
  bay_1132  chd  1 50 53
  bay_1133  chd  1 50 54
  bay_1134  chd  1 50 55
  bay_1135  chd  1 50 56
  bay_1136  chd  1 50 57
  bay_1137  chd  1 50 58
  bay_1138  chd  1 50 59
  bay_1139  chd  1 50 60
  bay_1140  chd  1 50 61
  bay_1141  chd  1 50 62
  bay_1142  chd  1 50 63
  bay_1143  chd  1 50 64
  bay_1144  chd  1 51 48
  bay_1145  chd  1 51 49
  bay_1146  chd  1 51 50
  bay_1147  chd  1 51 51
  bay_1148  chd  1 51 52
  bay_1149  chd  1 51 53
  bay_1150  chd  1 51 54
  bay_1151  chd  1 51 55
  bay_1152  chd  1 51 56
  bay_1153  chd  1 51 57
  bay_1154  chd  1 51 58
  bay_1155  chd  1 51 59
  bay_1156  chd  1 51 60
  bay_1157  chd  1 51 61
  bay_1158  chd  1 51 62
  bay_1159  chd  1 51 63
  bay_1160  chd  1 51 64
  bay_1161  chd  1 52 49
  bay_1162  chd  1 52 50
  bay_1163  chd  1 52 51
  bay_1164  chd  1 52 52
  bay_1165  chd  1 52 53
  bay_1166  chd  1 52 54
  bay_1167  chd  1 52 55
  bay_1168  chd  1 52 56
  bay_1169  chd  1 52 57
  bay_1170  chd  1 52 58
  bay_1171  chd  1 52 59
  bay_1172  chd  1 52 60
  bay_1173  chd  1 52 61
  bay_1174  chd  1 52 62
  bay_1175  chd  1 52 63
  bay_1176  chd  1 52 64
  bay_1177  chd  1 53 49
  bay_1178  chd  1 53 50
  bay_1179  chd  1 53 51
  bay_1180  chd  1 53 52
  bay_1181  chd  1 53 53
  bay_1182  chd  1 53 54
  bay_1183  chd  1 53 55
  bay_1184  chd  1 53 56
  bay_1185  chd  1 53 57
  bay_1186  chd  1 53 58
  bay_1187  chd  1 53 59
  bay_1188  chd  1 53 60
  bay_1189  chd  1 53 61
  bay_1190  chd  1 53 62
  bay_1191  chd  1 53 63
  bay_1192  chd  1 53 64
  bay_1193  chd  1 54 51
  bay_1194  chd  1 54 52
  bay_1195  chd  1 54 53
  bay_1196  chd  1 54 54
  bay_1197  chd  1 54 55
  bay_1198  chd  1 54 56
  bay_1199  chd  1 54 57
  bay_1200  chd  1 54 58
  bay_1201  chd  1 54 59
  bay_1202  chd  1 54 60
  bay_1203  chd  1 54 61
  bay_1204  chd  1 54 62
  bay_1205  chd  1 54 63
  bay_1206  chd  1 54 64
  bay_1207  chd  1 55 53
  bay_1208  chd  1 55 54
  bay_1209  chd  1 55 55
  bay_1210  chd  1 55 56
  bay_1211  chd  1 55 57
  bay_1212  chd  1 55 58
  bay_1213  chd  1 55 59
  bay_1214  chd  1 55 60
  bay_1215  chd  1 55 61
  bay_1216  chd  1 55 62
  bay_1217  chd  1 55 63
  bay_1218  chd  1 55 64
  bay_1219  chd  1 55 65
  bay_1220  chd  1 56 53
  bay_1221  chd  1 56 54
  bay_1222  chd  1 56 55
  bay_1223  chd  1 56 56
  bay_1224  chd  1 56 57
  bay_1225  chd  1 56 58
  bay_1226  chd  1 56 59
  bay_1227  chd  1 56 60
  bay_1228  chd  1 56 61
  bay_1229  chd  1 56 62
  bay_1230  chd  1 56 63
  bay_1231  chd  1 56 64
  bay_1232  chd  1 56 65
  bay_1233  chd  1 57 54
  bay_1234  chd  1 57 55
  bay_1235  chd  1 57 56
  bay_1236  chd  1 57 57
  bay_1237  chd  1 57 58
  bay_1238  chd  1 57 59
  bay_1239  chd  1 57 60
  bay_1240  chd  1 57 61