# File generated by Flopy version 3.9.1 on 08/26/2025 at 17:04:13.
BEGIN options
END options

BEGIN continuous  FILEOUT  outputs/chd_coastal_obs.csv
  bay_0  CHD  1 4 20
  bay_1  CHD  1 4 21
  bay_2  CHD  1 4 22
  bay_3  CHD  1 4 23
  bay_4  CHD  1 4 24
  bay_5  CHD  1 4 25
  bay_6  CHD  1 4 26
  bay_7  CHD  1 4 27
  bay_8  CHD  1 5 19
  bay_9  CHD  1 5 20
  bay_10  CHD  1 5 21
  bay_11  CHD  1 5 22
  bay_12  CHD  1 5 23
  bay_13  CHD  1 5 24
  bay_14  CHD  1 5 25
  bay_15  CHD  1 5 26
  bay_16  CHD  1 5 27
  bay_17  CHD  1 5 28
  bay_18  CHD  1 6 18
  bay_19  CHD  1 6 19
  bay_20  CHD  1 6 20
  bay_21  CHD  1 6 21
  bay_22  CHD  1 6 22
  bay_23  CHD  1 6 23
  bay_24  CHD  1 6 24
  bay_25  CHD  1 6 25
  bay_26  CHD  1 6 26
  bay_27  CHD  1 6 27
  bay_28  CHD  1 6 28
  bay_29  CHD  1 6 29
  bay_30  CHD  1 7 17
  bay_31  CHD  1 7 18
  bay_32  CHD  1 7 19
  bay_33  CHD  1 7 20
  bay_34  CHD  1 7 21
  bay_35  CHD  1 7 22
  bay_36  CHD  1 7 23
  bay_37  CHD  1 7 24
  bay_38  CHD  1 7 25
  bay_39  CHD  1 7 26
  bay_40  CHD  1 7 27
  bay_41  CHD  1 7 28
  bay_42  CHD  1 7 29
  bay_43  CHD  1 7 30
  bay_44  CHD  1 8 16
  bay_45  CHD  1 8 17
  bay_46  CHD  1 8 18
  bay_47  CHD  1 8 19
  bay_48  CHD  1 8 20
  bay_49  CHD  1 8 21
  bay_50  CHD  1 8 22
  bay_51  CHD  1 8 23
  bay_52  CHD  1 8 24
  bay_53  CHD  1 8 25
  bay_54  CHD  1 8 26
  bay_55  CHD  1 8 27
  bay_56  CHD  1 8 28
  bay_57  CHD  1 8 29
  bay_58  CHD  1 8 30
  bay_59  CHD  1 8 31
  bay_60  CHD  1 9 16
  bay_61  CHD  1 9 17
  bay_62  CHD  1 9 18
  bay_63  CHD  1 9 19
  bay_64  CHD  1 9 20
  bay_65  CHD  1 9 21
  bay_66  CHD  1 9 22
  bay_67  CHD  1 9 23
  bay_68  CHD  1 9 24
  bay_69  CHD  1 9 25
  bay_70  CHD  1 9 26
  bay_71  CHD  1 9 27
  bay_72  CHD  1 9 28
  bay_73  CHD  1 9 29
  bay_74  CHD  1 9 30
  bay_75  CHD  1 9 31
  bay_76  CHD  1 10 16
  bay_77  CHD  1 10 17
  bay_78  CHD  1 10 18
  bay_79  CHD  1 10 19
  bay_80  CHD  1 10 20
  bay_81  CHD  1 10 21
  bay_82  CHD  1 10 22
  bay_83  CHD  1 10 27
  bay_84  CHD  1 10 28
  bay_85  CHD  1 10 29
  bay_86  CHD  1 10 30
  bay_87  CHD  1 10 31
  bay_88  CHD  1 11 16
  bay_89  CHD  1 11 17
  bay_90  CHD  1 11 18
  bay_91  CHD  1 11 19
  bay_92  CHD  1 11 20
  bay_93  CHD  1 11 21
  bay_94  CHD  1 11 28
  bay_95  CHD  1 11 29
  bay_96  CHD  1 11 30
  bay_97  CHD  1 11 31
  bay_98  CHD  1 11 32
  bay_99  CHD  1 12 16
  bay_100  CHD  1 12 17
  bay_101  CHD  1 12 18
  bay_102  CHD  1 12 28
  bay_103  CHD  1 12 29
  bay_104  CHD  1 12 30
  bay_105  CHD  1 12 31
  bay_106  CHD  1 12 32
  bay_107  CHD  1 12 33
  bay_108  CHD  1 13 16
  bay_109  CHD  1 13 17
  bay_110  CHD  1 13 28
  bay_111  CHD  1 13 29
  bay_112  CHD  1 13 30
  bay_113  CHD  1 13 31
  bay_114  CHD  1 13 32
  bay_115  CHD  1 13 33
  bay_116  CHD  1 13 34
  bay_117  CHD  1 14 28
  bay_118  CHD  1 14 29
  bay_119  CHD  1 14 30
  bay_120  CHD  1 14 31
  bay_121  CHD  1 14 32
  bay_122  CHD  1 14 33
  bay_123  CHD  1 14 34
  bay_124  CHD  1 14 35
  bay_125  CHD  1 14 46
  bay_126  CHD  1 14 47
  bay_127  CHD  1 14 48
  bay_128  CHD  1 14 49
  bay_129  CHD  1 15 28
  bay_130  CHD  1 15 29
  bay_131  CHD  1 15 30
  bay_132  CHD  1 15 31
  bay_133  CHD  1 15 32
  bay_134  CHD  1 15 33
  bay_135  CHD  1 15 34
  bay_136  CHD  1 15 35
  bay_137  CHD  1 15 45
  bay_138  CHD  1 15 46
  bay_139  CHD  1 15 47
  bay_140  CHD  1 15 48
  bay_141  CHD  1 15 49
  bay_142  CHD  1 15 50
  bay_143  CHD  1 16 28
  bay_144  CHD  1 16 29
  bay_145  CHD  1 16 30
  bay_146  CHD  1 16 31
  bay_147  CHD  1 16 32
  bay_148  CHD  1 16 33
  bay_149  CHD  1 16 34
  bay_150  CHD  1 16 35
  bay_151  CHD  1 16 42
  bay_152  CHD  1 16 43
  bay_153  CHD  1 16 44
  bay_154  CHD  1 16 45
  bay_155  CHD  1 16 46
  bay_156  CHD  1 16 47
  bay_157  CHD  1 16 48
  bay_158  CHD  1 16 49
  bay_159  CHD  1 16 50
  bay_160  CHD  1 16 51
  bay_161  CHD  1 17 27
  bay_162  CHD  1 17 29
  bay_163  CHD  1 17 30
  bay_164  CHD  1 17 31
  bay_165  CHD  1 17 32
  bay_166  CHD  1 17 33
  bay_167  CHD  1 17 34
  bay_168  CHD  1 17 35
  bay_169  CHD  1 17 36
  bay_170  CHD  1 17 41
  bay_171  CHD  1 17 42
  bay_172  CHD  1 17 43
  bay_173  CHD  1 17 44
  bay_174  CHD  1 17 45
  bay_175  CHD  1 17 46
  bay_176  CHD  1 17 47
  bay_177  CHD  1 17 48
  bay_178  CHD  1 17 49
  bay_179  CHD  1 17 50
  bay_180  CHD  1 17 51
  bay_181  CHD  1 17 52
  bay_182  CHD  1 18 28
  bay_183  CHD  1 18 30
  bay_184  CHD  1 18 31
  bay_185  CHD  1 18 32
  bay_186  CHD  1 18 33
  bay_187  CHD  1 18 34
  bay_188  CHD  1 18 35
  bay_189  CHD  1 18 36
  bay_190  CHD  1 18 37
  bay_191  CHD  1 18 38
  bay_192  CHD  1 18 39
  bay_193  CHD  1 18 40
  bay_194  CHD  1 18 41
  bay_195  CHD  1 18 42
  bay_196  CHD  1 18 43
  bay_197  CHD  1 18 44
  bay_198  CHD  1 18 45
  bay_199  CHD  1 18 46
  bay_200  CHD  1 18 47
  bay_201  CHD  1 18 48
  bay_202  CHD  1 18 49
  bay_203  CHD  1 18 50
  bay_204  CHD  1 18 51
  bay_205  CHD  1 18 52
  bay_206  CHD  1 18 53
  bay_207  CHD  1 19 30
  bay_208  CHD  1 19 31
  bay_209  CHD  1 19 32
  bay_210  CHD  1 19 33
  bay_211  CHD  1 19 34
  bay_212  CHD  1 19 35
  bay_213  CHD  1 19 36
  bay_214  CHD  1 19 37
  bay_215  CHD  1 19 38
  bay_216  CHD  1 19 39
  bay_217  CHD  1 19 40
  bay_218  CHD  1 19 41
  bay_219  CHD  1 19 42
  bay_220  CHD  1 19 43
  bay_221  CHD  1 19 44
  bay_222  CHD  1 19 45
  bay_223  CHD  1 19 46
  bay_224  CHD  1 19 47
  bay_225  CHD  1 19 48
  bay_226  CHD  1 19 49
  bay_227  CHD  1 19 50
  bay_228  CHD  1 19 51
  bay_229  CHD  1 19 52
  bay_230  CHD  1 19 53
  bay_231  CHD  1 19 54
  bay_232  CHD  1 20 31
  bay_233  CHD  1 20 32
  bay_234  CHD  1 20 33
  bay_235  CHD  1 20 34
  bay_236  CHD  1 20 35
  bay_237  CHD  1 20 36
  bay_238  CHD  1 20 37
  bay_239  CHD  1 20 38
  bay_240  CHD  1 20 39
  bay_241  CHD  1 20 40
  bay_242  CHD  1 20 41
  bay_243  CHD  1 20 42
  bay_244  CHD  1 20 43
  bay_245  CHD  1 20 44
  bay_246  CHD  1 20 45
  bay_247  CHD  1 20 46
  bay_248  CHD  1 20 47
  bay_249  CHD  1 20 48
  bay_250  CHD  1 20 49
  bay_251  CHD  1 20 50
  bay_252  CHD  1 20 51
  bay_253  CHD  1 20 52
  bay_254  CHD  1 20 53
  bay_255  CHD  1 20 54
  bay_256  CHD  1 20 55
  bay_257  CHD  1 21 28
  bay_258  CHD  1 21 29
  bay_259  CHD  1 21 32
  bay_260  CHD  1 21 33
  bay_261  CHD  1 21 34
  bay_262  CHD  1 21 35
  bay_263  CHD  1 21 36
  bay_264  CHD  1 21 37
  bay_265  CHD  1 21 38
  bay_266  CHD  1 21 39
  bay_267  CHD  1 21 40
  bay_268  CHD  1 21 41
  bay_269  CHD  1 21 42
  bay_270  CHD  1 21 43
  bay_271  CHD  1 21 44
  bay_272  CHD  1 21 45
  bay_273  CHD  1 21 46
  bay_274  CHD  1 21 47
  bay_275  CHD  1 21 48
  bay_276  CHD  1 21 49
  bay_277  CHD  1 21 50
  bay_278  CHD  1 21 51
  bay_279  CHD  1 21 52
  bay_280  CHD  1 21 53
  bay_281  CHD  1 21 54
  bay_282  CHD  1 21 55
  bay_283  CHD  1 21 56
  bay_284  CHD  1 22 28
  bay_285  CHD  1 22 29
  bay_286  CHD  1 22 30
  bay_287  CHD  1 22 33
  bay_288  CHD  1 22 34
  bay_289  CHD  1 22 35
  bay_290  CHD  1 22 36
  bay_291  CHD  1 22 37
  bay_292  CHD  1 22 38
  bay_293  CHD  1 22 39
  bay_294  CHD  1 22 40
  bay_295  CHD  1 22 41
  bay_296  CHD  1 22 42
  bay_297  CHD  1 22 43
  bay_298  CHD  1 22 44
  bay_299  CHD  1 22 45
  bay_300  CHD  1 22 46
  bay_301  CHD  1 22 47
  bay_302  CHD  1 22 48
  bay_303  CHD  1 22 49
  bay_304  CHD  1 22 50
  bay_305  CHD  1 22 51
  bay_306  CHD  1 22 52
  bay_307  CHD  1 22 53
  bay_308  CHD  1 22 54
  bay_309  CHD  1 22 55
  bay_310  CHD  1 22 56
  bay_311  CHD  1 22 57
  bay_312  CHD  1 22 58
  bay_313  CHD  1 22 59
  bay_314  CHD  1 22 60
  bay_315  CHD  1 22 61
  bay_316  CHD  1 22 62
  bay_317  CHD  1 22 63
  bay_318  CHD  1 22 64
  bay_319  CHD  1 22 65
  bay_320  CHD  1 23 29
  bay_321  CHD  1 23 30
  bay_322  CHD  1 23 31
  bay_323  CHD  1 23 34
  bay_324  CHD  1 23 35
  bay_325  CHD  1 23 36
  bay_326  CHD  1 23 37
  bay_327  CHD  1 23 38
  bay_328  CHD  1 23 39
  bay_329  CHD  1 23 40
  bay_330  CHD  1 23 41
  bay_331  CHD  1 23 42
  bay_332  CHD  1 23 43
  bay_333  CHD  1 23 44
  bay_334  CHD  1 23 45
  bay_335  CHD  1 23 46
  bay_336  CHD  1 23 47
  bay_337  CHD  1 23 48
  bay_338  CHD  1 23 49
  bay_339  CHD  1 23 50
  bay_340  CHD  1 23 51
  bay_341  CHD  1 23 52
  bay_342  CHD  1 23 53
  bay_343  CHD  1 23 54
  bay_344  CHD  1 23 55
  bay_345  CHD  1 23 56
  bay_346  CHD  1 23 57
  bay_347  CHD  1 23 58
  bay_348  CHD  1 23 59
  bay_349  CHD  1 23 60
  bay_350  CHD  1 23 61
  bay_351  CHD  1 23 62
  bay_352  CHD  1 23 63
  bay_353  CHD  1 23 64
  bay_354  CHD  1 23 65
  bay_355  CHD  1 23 66
  bay_356  CHD  1 24 29
  bay_357  CHD  1 24 30
  bay_358  CHD  1 24 31
  bay_359  CHD  1 24 32
  bay_360  CHD  1 24 35
  bay_361  CHD  1 24 36
  bay_362  CHD  1 24 37
  bay_363  CHD  1 24 38
  bay_364  CHD  1 24 39
  bay_365  CHD  1 24 40
  bay_366  CHD  1 24 41
  bay_367  CHD  1 24 42
  bay_368  CHD  1 24 43
  bay_369  CHD  1 24 44
  bay_370  CHD  1 24 45
  bay_371  CHD  1 24 46
  bay_372  CHD  1 24 47
  bay_373  CHD  1 24 48
  bay_374  CHD  1 24 49
  bay_375  CHD  1 24 50
  bay_376  CHD  1 24 51
  bay_377  CHD  1 24 52
  bay_378  CHD  1 24 53
  bay_379  CHD  1 24 54
  bay_380  CHD  1 24 55
  bay_381  CHD  1 24 56
  bay_382  CHD  1 24 57
  bay_383  CHD  1 24 58
  bay_384  CHD  1 24 59
  bay_385  CHD  1 24 60
  bay_386  CHD  1 24 61
  bay_387  CHD  1 24 62
  bay_388  CHD  1 24 63
  bay_389  CHD  1 24 64
  bay_390  CHD  1 24 65
  bay_391  CHD  1 24 66
  bay_392  CHD  1 24 67
  bay_393  CHD  1 24 68
  bay_394  CHD  1 24 69
  bay_395  CHD  1 25 31
  bay_396  CHD  1 25 32
  bay_397  CHD  1 25 33
  bay_398  CHD  1 25 36
  bay_399  CHD  1 25 37
  bay_400  CHD  1 25 38
  bay_401  CHD  1 25 39
  bay_402  CHD  1 25 40
  bay_403  CHD  1 25 41
  bay_404  CHD  1 25 42
  bay_405  CHD  1 25 43
  bay_406  CHD  1 25 44
  bay_407  CHD  1 25 45
  bay_408  CHD  1 25 46
  bay_409  CHD  1 25 47
  bay_410  CHD  1 25 48
  bay_411  CHD  1 25 49
  bay_412  CHD  1 25 50
  bay_413  CHD  1 25 51
  bay_414  CHD  1 25 52
  bay_415  CHD  1 25 53
  bay_416  CHD  1 25 54
  bay_417  CHD  1 25 55
  bay_418  CHD  1 25 56
  bay_419  CHD  1 25 57
  bay_420  CHD  1 25 58
  bay_421  CHD  1 25 59
  bay_422  CHD  1 25 60
  bay_423  CHD  1 25 61
  bay_424  CHD  1 25 62
  bay_425  CHD  1 25 63
  bay_426  CHD  1 25 64
  bay_427  CHD  1 25 65
  bay_428  CHD  1 25 66
  bay_429  CHD  1 25 67
  bay_430  CHD  1 25 68
  bay_431  CHD  1 25 69
  bay_432  CHD  1 25 70
  bay_433  CHD  1 26 31
  bay_434  CHD  1 26 32
  bay_435  CHD  1 26 33
  bay_436  CHD  1 26 34
  bay_437  CHD  1 26 37
  bay_438  CHD  1 26 38
  bay_439  CHD  1 26 39
  bay_440  CHD  1 26 40
  bay_441  CHD  1 26 41
  bay_442  CHD  1 26 42
  bay_443  CHD  1 26 43
  bay_444  CHD  1 26 44
  bay_445  CHD  1 26 45
  bay_446  CHD  1 26 46
  bay_447  CHD  1 26 47
  bay_448  CHD  1 26 48
  bay_449  CHD  1 26 49
  bay_450  CHD  1 26 50
  bay_451  CHD  1 26 51
  bay_452  CHD  1 26 52
  bay_453  CHD  1 26 53
  bay_454  CHD  1 26 54
  bay_455  CHD  1 26 55
  bay_456  CHD  1 26 56
  bay_457  CHD  1 26 57
  bay_458  CHD  1 26 58
  bay_459  CHD  1 26 59
  bay_460  CHD  1 26 60
  bay_461  CHD  1 26 61
  bay_462  CHD  1 26 62
  bay_463  CHD  1 26 63
  bay_464  CHD  1 26 64
  bay_465  CHD  1 26 65
  bay_466  CHD  1 26 66
  bay_467  CHD  1 26 67
  bay_468  CHD  1 26 68
  bay_469  CHD  1 26 69
  bay_470  CHD  1 26 70
  bay_471  CHD  1 26 71
  bay_472  CHD  1 27 31
  bay_473  CHD  1 27 32
  bay_474  CHD  1 27 33
  bay_475  CHD  1 27 34
  bay_476  CHD  1 27 39
  bay_477  CHD  1 27 40
  bay_478  CHD  1 27 41
  bay_479  CHD  1 27 42
  bay_480  CHD  1 27 43
  bay_481  CHD  1 27 44
  bay_482  CHD  1 27 45
  bay_483  CHD  1 27 46
  bay_484  CHD  1 27 47
  bay_485  CHD  1 27 48
  bay_486  CHD  1 27 49
  bay_487  CHD  1 27 50
  bay_488  CHD  1 27 53
  bay_489  CHD  1 27 54
  bay_490  CHD  1 27 55
  bay_491  CHD  1 27 56
  bay_492  CHD  1 27 57
  bay_493  CHD  1 27 58
  bay_494  CHD  1 27 59
  bay_495  CHD  1 27 60
  bay_496  CHD  1 27 61
  bay_497  CHD  1 27 62
  bay_498  CHD  1 27 63
  bay_499  CHD  1 27 64
  bay_500  CHD  1 27 65
  bay_501  CHD  1 27 66
  bay_502  CHD  1 27 67
  bay_503  CHD  1 27 68
  bay_504  CHD  1 27 69
  bay_505  CHD  1 27 70
  bay_506  CHD  1 27 71
  bay_507  CHD  1 27 72
  bay_508  CHD  1 28 31
  bay_509  CHD  1 28 32
  bay_510  CHD  1 28 33
  bay_511  CHD  1 28 34
  bay_512  CHD  1 28 35
  bay_513  CHD  1 28 36
  bay_514  CHD  1 28 40
  bay_515  CHD  1 28 41
  bay_516  CHD  1 28 42
  bay_517  CHD  1 28 43
  bay_518  CHD  1 28 44
  bay_519  CHD  1 28 45
  bay_520  CHD  1 28 46
  bay_521  CHD  1 28 47
  bay_522  CHD  1 28 48
  bay_523  CHD  1 28 49
  bay_524  CHD  1 28 50
  bay_525  CHD  1 28 59
  bay_526  CHD  1 28 60
  bay_527  CHD  1 28 61
  bay_528  CHD  1 28 62
  bay_529  CHD  1 28 63
  bay_530  CHD  1 28 64
  bay_531  CHD  1 28 65
  bay_532  CHD  1 28 66
  bay_533  CHD  1 28 67
  bay_534  CHD  1 28 68
  bay_535  CHD  1 28 69
  bay_536  CHD  1 28 70
  bay_537  CHD  1 28 71
  bay_538  CHD  1 28 72
  bay_539  CHD  1 28 73
  bay_540  CHD  1 29 30
  bay_541  CHD  1 29 31
  bay_542  CHD  1 29 32
  bay_543  CHD  1 29 33
  bay_544  CHD  1 29 34
  bay_545  CHD  1 29 35
  bay_546  CHD  1 29 36
  bay_547  CHD  1 29 37
  bay_548  CHD  1 29 38
  bay_549  CHD  1 29 42
  bay_550  CHD  1 29 43
  bay_551  CHD  1 29 44
  bay_552  CHD  1 29 45
  bay_553  CHD  1 29 46
  bay_554  CHD  1 29 47
  bay_555  CHD  1 29 48
  bay_556  CHD  1 29 49
  bay_557  CHD  1 29 50
  bay_558  CHD  1 29 51
  bay_559  CHD  1 29 64
  bay_560  CHD  1 29 65
  bay_561  CHD  1 29 66
  bay_562  CHD  1 29 67
  bay_563  CHD  1 29 68
  bay_564  CHD  1 29 69
  bay_565  CHD  1 29 70
  bay_566  CHD  1 29 71
  bay_567  CHD  1 29 72
  bay_568  CHD  1 29 73
  bay_569  CHD  1 29 74
  bay_570  CHD  1 30 30
  bay_571  CHD  1 30 31
  bay_572  CHD  1 30 32
  bay_573  CHD  1 30 33
  bay_574  CHD  1 30 34
  bay_575  CHD  1 30 35
  bay_576  CHD  1 30 36
  bay_577  CHD  1 30 37
  bay_578  CHD  1 30 38
  bay_579  CHD  1 30 39
  bay_580  CHD  1 30 40
  bay_581  CHD  1 30 48
  bay_582  CHD  1 30 49
  bay_583  CHD  1 30 50
  bay_584  CHD  1 30 51
  bay_585  CHD  1 30 67
  bay_586  CHD  1 30 68
  bay_587  CHD  1 30 69
  bay_588  CHD  1 30 70
  bay_589  CHD  1 30 71
  bay_590  CHD  1 30 72
  bay_591  CHD  1 30 73
  bay_592  CHD  1 30 74
  bay_593  CHD  1 30 75
  bay_594  CHD  1 31 31
  bay_595  CHD  1 31 32
  bay_596  CHD  1 31 33
  bay_597  CHD  1 31 34
  bay_598  CHD  1 31 35
  bay_599  CHD  1 31 36
  bay_600  CHD  1 31 37
  bay_601  CHD  1 31 38
  bay_602  CHD  1 31 39
  bay_603  CHD  1 31 40
  bay_604  CHD  1 31 41
  bay_605  CHD  1 31 42
  bay_606  CHD  1 31 48
  bay_607  CHD  1 31 49
  bay_608  CHD  1 31 50
  bay_609  CHD  1 31 51
  bay_610  CHD  1 31 52
  bay_611  CHD  1 31 53
  bay_612  CHD  1 31 54
  bay_613  CHD  1 31 68
  bay_614  CHD  1 31 69
  bay_615  CHD  1 31 70
  bay_616  CHD  1 31 71
  bay_617  CHD  1 31 72
  bay_618  CHD  1 31 73
  bay_619  CHD  1 31 74
  bay_620  CHD  1 31 75
  bay_621  CHD  1 31 76
  bay_622  CHD  1 32 31
  bay_623  CHD  1 32 32
  bay_624  CHD  1 32 33
  bay_625  CHD  1 32 34
  bay_626  CHD  1 32 35
  bay_627  CHD  1 32 36
  bay_628  CHD  1 32 37
  bay_629  CHD  1 32 38
  bay_630  CHD  1 32 39
  bay_631  CHD  1 32 40
  bay_632  CHD  1 32 41
  bay_633  CHD  1 32 42
  bay_634  CHD  1 32 43
  bay_635  CHD  1 32 48
  bay_636  CHD  1 32 49
  bay_637  CHD  1 32 50
  bay_638  CHD  1 32 51
  bay_639  CHD  1 32 52
  bay_640  CHD  1 32 53
  bay_641  CHD  1 32 54
  bay_642  CHD  1 32 55
  bay_643  CHD  1 32 56
  bay_644  CHD  1 32 57
  bay_645  CHD  1 32 58
  bay_646  CHD  1 32 69
  bay_647  CHD  1 32 70
  bay_648  CHD  1 32 71
  bay_649  CHD  1 32 72
  bay_650  CHD  1 32 73
  bay_651  CHD  1 32 74
  bay_652  CHD  1 32 75
  bay_653  CHD  1 32 76
  bay_654  CHD  1 32 77
  bay_655  CHD  1 33 31
  bay_656  CHD  1 33 32
  bay_657  CHD  1 33 33
  bay_658  CHD  1 33 34
  bay_659  CHD  1 33 35
  bay_660  CHD  1 33 36
  bay_661  CHD  1 33 37
  bay_662  CHD  1 33 38
  bay_663  CHD  1 33 39
  bay_664  CHD  1 33 40
  bay_665  CHD  1 33 41
  bay_666  CHD  1 33 42
  bay_667  CHD  1 33 43
  bay_668  CHD  1 33 44
  bay_669  CHD  1 33 45
  bay_670  CHD  1 33 48
  bay_671  CHD  1 33 49
  bay_672  CHD  1 33 50
  bay_673  CHD  1 33 51
  bay_674  CHD  1 33 52
  bay_675  CHD  1 33 53
  bay_676  CHD  1 33 54
  bay_677  CHD  1 33 55
  bay_678  CHD  1 33 56
  bay_679  CHD  1 33 57
  bay_680  CHD  1 33 58
  bay_681  CHD  1 33 59
  bay_682  CHD  1 33 65
  bay_683  CHD  1 33 66
  bay_684  CHD  1 33 67
  bay_685  CHD  1 33 68
  bay_686  CHD  1 33 70
  bay_687  CHD  1 33 71
  bay_688  CHD  1 33 72
  bay_689  CHD  1 33 73
  bay_690  CHD  1 33 74
  bay_691  CHD  1 33 75
  bay_692  CHD  1 33 76
  bay_693  CHD  1 33 77
  bay_694  CHD  1 34 31
  bay_695  CHD  1 34 32
  bay_696  CHD  1 34 33
  bay_697  CHD  1 34 34
  bay_698  CHD  1 34 35
  bay_699  CHD  1 34 36
  bay_700  CHD  1 34 37
  bay_701  CHD  1 34 38
  bay_702  CHD  1 34 39
  bay_703  CHD  1 34 40
  bay_704  CHD  1 34 41
  bay_705  CHD  1 34 42
  bay_706  CHD  1 34 43
  bay_707  CHD  1 34 44
  bay_708  CHD  1 34 45
  bay_709  CHD  1 34 49
  bay_710  CHD  1 34 50
  bay_711  CHD  1 34 51
  bay_712  CHD  1 34 52
  bay_713  CHD  1 34 53
  bay_714  CHD  1 34 54
  bay_715  CHD  1 34 55
  bay_716  CHD  1 34 56
  bay_717  CHD  1 34 57
  bay_718  CHD  1 34 58
  bay_719  CHD  1 34 59
  bay_720  CHD  1 34 60
  bay_721  CHD  1 34 64
  bay_722  CHD  1 34 65
  bay_723  CHD  1 34 66
  bay_724  CHD  1 34 67
  bay_725  CHD  1 34 68
  bay_726  CHD  1 34 71
  bay_727  CHD  1 34 72
  bay_728  CHD  1 34 73
  bay_729  CHD  1 34 74
  bay_730  CHD  1 34 75
  bay_731  CHD  1 34 76
  bay_732  CHD  1 34 77
  bay_733  CHD  1 35 31
  bay_734  CHD  1 35 32
  bay_735  CHD  1 35 33
  bay_736  CHD  1 35 34
  bay_737  CHD  1 35 35
  bay_738  CHD  1 35 36
  bay_739  CHD  1 35 37
  bay_740  CHD  1 35 38
  bay_741  CHD  1 35 39
  bay_742  CHD  1 35 40
  bay_743  CHD  1 35 41
  bay_744  CHD  1 35 42
  bay_745  CHD  1 35 43
  bay_746  CHD  1 35 44
  bay_747  CHD  1 35 45
  bay_748  CHD  1 35 46
  bay_749  CHD  1 35 47
  bay_750  CHD  1 35 50
  bay_751  CHD  1 35 51
  bay_752  CHD  1 35 52
  bay_753  CHD  1 35 53
  bay_754  CHD  1 35 54
  bay_755  CHD  1 35 55
  bay_756  CHD  1 35 56
  bay_757  CHD  1 35 57
  bay_758  CHD  1 35 58
  bay_759  CHD  1 35 59
  bay_760  CHD  1 35 60
  bay_761  CHD  1 35 63
  bay_762  CHD  1 35 64
  bay_763  CHD  1 35 65
  bay_764  CHD  1 35 66
  bay_765  CHD  1 35 67
  bay_766  CHD  1 35 72
  bay_767  CHD  1 35 73
  bay_768  CHD  1 35 74
  bay_769  CHD  1 35 75
  bay_770  CHD  1 35 76
  bay_771  CHD  1 35 77
  bay_772  CHD  1 36 31
  bay_773  CHD  1 36 32
  bay_774  CHD  1 36 33
  bay_775  CHD  1 36 34
  bay_776  CHD  1 36 35
  bay_777  CHD  1 36 36
  bay_778  CHD  1 36 37
  bay_779  CHD  1 36 38
  bay_780  CHD  1 36 39
  bay_781  CHD  1 36 40
  bay_782  CHD  1 36 41
  bay_783  CHD  1 36 42
  bay_784  CHD  1 36 43
  bay_785  CHD  1 36 44
  bay_786  CHD  1 36 45
  bay_787  CHD  1 36 46
  bay_788  CHD  1 36 47
  bay_789  CHD  1 36 48
  bay_790  CHD  1 36 49
  bay_791  CHD  1 36 50
  bay_792  CHD  1 36 51
  bay_793  CHD  1 36 52
  bay_794  CHD  1 36 53
  bay_795  CHD  1 36 54
  bay_796  CHD  1 36 55
  bay_797  CHD  1 36 56
  bay_798  CHD  1 36 57
  bay_799  CHD  1 36 58
  bay_800  CHD  1 36 59
  bay_801  CHD  1 36 60
  bay_802  CHD  1 36 61
  bay_803  CHD  1 36 62
  bay_804  CHD  1 36 63
  bay_805  CHD  1 36 64
  bay_806  CHD  1 36 65
  bay_807  CHD  1 36 66
  bay_808  CHD  1 36 67
  bay_809  CHD  1 36 73
  bay_810  CHD  1 36 75
  bay_811  CHD  1 36 76
  bay_812  CHD  1 36 77
  bay_813  CHD  1 37 36
  bay_814  CHD  1 37 37
  bay_815  CHD  1 37 38
  bay_816  CHD  1 37 39
  bay_817  CHD  1 37 40
  bay_818  CHD  1 37 41
  bay_819  CHD  1 37 42
  bay_820  CHD  1 37 43
  bay_821  CHD  1 37 44
  bay_822  CHD  1 37 45
  bay_823  CHD  1 37 46
  bay_824  CHD  1 37 47
  bay_825  CHD  1 37 48
  bay_826  CHD  1 37 49
  bay_827  CHD  1 37 50
  bay_828  CHD  1 37 51
  bay_829  CHD  1 37 52
  bay_830  CHD  1 37 53
  bay_831  CHD  1 37 54
  bay_832  CHD  1 37 55
  bay_833  CHD  1 37 56
  bay_834  CHD  1 37 57
  bay_835  CHD  1 37 58
  bay_836  CHD  1 37 59
  bay_837  CHD  1 37 60
  bay_838  CHD  1 37 61
  bay_839  CHD  1 37 62
  bay_840  CHD  1 37 63
  bay_841  CHD  1 37 64
  bay_842  CHD  1 37 65
  bay_843  CHD  1 37 66
  bay_844  CHD  1 37 67
  bay_845  CHD  1 37 76
  bay_846  CHD  1 37 77
  bay_847  CHD  1 38 37
  bay_848  CHD  1 38 38
  bay_849  CHD  1 38 39
  bay_850  CHD  1 38 40
  bay_851  CHD  1 38 41
  bay_852  CHD  1 38 42
  bay_853  CHD  1 38 43
  bay_854  CHD  1 38 44
  bay_855  CHD  1 38 45
  bay_856  CHD  1 38 46
  bay_857  CHD  1 38 47
  bay_858  CHD  1 38 48
  bay_859  CHD  1 38 49
  bay_860  CHD  1 38 50
  bay_861  CHD  1 38 51
  bay_862  CHD  1 38 52
  bay_863  CHD  1 38 53
  bay_864  CHD  1 38 54
  bay_865  CHD  1 38 55
  bay_866  CHD  1 38 56
  bay_867  CHD  1 38 57
  bay_868  CHD  1 38 58
  bay_869  CHD  1 38 59
  bay_870  CHD  1 38 60
  bay_871  CHD  1 38 61
  bay_872  CHD  1 38 62
  bay_873  CHD  1 39 37
  bay_874  CHD  1 39 38
  bay_875  CHD  1 39 39
  bay_876  CHD  1 39 40
  bay_877  CHD  1 39 41
  bay_878  CHD  1 39 42
  bay_879  CHD  1 39 43
  bay_880  CHD  1 39 44
  bay_881  CHD  1 39 45
  bay_882  CHD  1 39 46
  bay_883  CHD  1 39 47
  bay_884  CHD  1 39 48
  bay_885  CHD  1 39 49
  bay_886  CHD  1 39 50
  bay_887  CHD  1 39 51
  bay_888  CHD  1 39 52
  bay_889  CHD  1 39 53
  bay_890  CHD  1 39 54
  bay_891  CHD  1 39 55
  bay_892  CHD  1 39 56
  bay_893  CHD  1 39 57
  bay_894  CHD  1 39 58
  bay_895  CHD  1 39 59
  bay_896  CHD  1 39 60
  bay_897  CHD  1 39 61
  bay_898  CHD  1 39 62
  bay_899  CHD  1 40 37
  bay_900  CHD  1 40 38
  bay_901  CHD  1 40 39
  bay_902  CHD  1 40 40
  bay_903  CHD  1 40 41
  bay_904  CHD  1 40 42
  bay_905  CHD  1 40 43
  bay_906  CHD  1 40 44
  bay_907  CHD  1 40 45
  bay_908  CHD  1 40 46
  bay_909  CHD  1 40 47
  bay_910  CHD  1 40 48
  bay_911  CHD  1 40 49
  bay_912  CHD  1 40 50
  bay_913  CHD  1 40 51
  bay_914  CHD  1 40 52
  bay_915  CHD  1 40 53
  bay_916  CHD  1 40 54
  bay_917  CHD  1 40 55
  bay_918  CHD  1 40 56
  bay_919  CHD  1 40 57
  bay_920  CHD  1 40 58
  bay_921  CHD  1 40 59
  bay_922  CHD  1 40 60
  bay_923  CHD  1 40 61
  bay_924  CHD  1 40 62
  bay_925  CHD  1 41 37
  bay_926  CHD  1 41 38
  bay_927  CHD  1 41 39
  bay_928  CHD  1 41 40
  bay_929  CHD  1 41 41
  bay_930  CHD  1 41 42
  bay_931  CHD  1 41 43
  bay_932  CHD  1 41 44
  bay_933  CHD  1 41 45
  bay_934  CHD  1 41 46
  bay_935  CHD  1 41 47
  bay_936  CHD  1 41 48
  bay_937  CHD  1 41 49
  bay_938  CHD  1 41 50
  bay_939  CHD  1 41 51
  bay_940  CHD  1 41 52
  bay_941  CHD  1 41 53
  bay_942  CHD  1 41 54
  bay_943  CHD  1 41 55
  bay_944  CHD  1 41 56
  bay_945  CHD  1 41 57
  bay_946  CHD  1 41 58
  bay_947  CHD  1 41 59
  bay_948  CHD  1 41 60
  bay_949  CHD  1 41 61
  bay_950  CHD  1 41 62
  bay_951  CHD  1 42 38
  bay_952  CHD  1 42 39
  bay_953  CHD  1 42 40
  bay_954  CHD  1 42 41
  bay_955  CHD  1 42 42
  bay_956  CHD  1 42 43
  bay_957  CHD  1 42 44
  bay_958  CHD  1 42 45
  bay_959  CHD  1 42 46
  bay_960  CHD  1 42 47
  bay_961  CHD  1 42 48
  bay_962  CHD  1 42 49
  bay_963  CHD  1 42 50
  bay_964  CHD  1 42 51
  bay_965  CHD  1 42 52
  bay_966  CHD  1 42 53
  bay_967  CHD  1 42 54
  bay_968  CHD  1 42 55
  bay_969  CHD  1 42 56
  bay_970  CHD  1 42 57
  bay_971  CHD  1 42 58
  bay_972  CHD  1 42 59
  bay_973  CHD  1 42 60
  bay_974  CHD  1 42 61
  bay_975  CHD  1 42 62
  bay_976  CHD  1 43 38
  bay_977  CHD  1 43 39
  bay_978  CHD  1 43 40
  bay_979  CHD  1 43 41
  bay_980  CHD  1 43 42
  bay_981  CHD  1 43 43
  bay_982  CHD  1 43 44
  bay_983  CHD  1 43 45
  bay_984  CHD  1 43 46
  bay_985  CHD  1 43 47
  bay_986  CHD  1 43 48
  bay_987  CHD  1 43 49
  bay_988  CHD  1 43 50
  bay_989  CHD  1 43 51
  bay_990  CHD  1 43 52
  bay_991  CHD  1 43 53
  bay_992  CHD  1 43 54
  bay_993  CHD  1 43 55
  bay_994  CHD  1 43 56
  bay_995  CHD  1 43 57
  bay_996  CHD  1 43 58
  bay_997  CHD  1 43 59
  bay_998  CHD  1 43 60
  bay_999  CHD  1 43 61
  bay_1000  CHD  1 43 62
  bay_1001  CHD  1 44 38
  bay_1002  CHD  1 44 39
  bay_1003  CHD  1 44 40
  bay_1004  CHD  1 44 41
  bay_1005  CHD  1 44 42
  bay_1006  CHD  1 44 43
  bay_1007  CHD  1 44 44
  bay_1008  CHD  1 44 45
  bay_1009  CHD  1 44 46
  bay_1010  CHD  1 44 47
  bay_1011  CHD  1 44 48
  bay_1012  CHD  1 44 49
  bay_1013  CHD  1 44 50
  bay_1014  CHD  1 44 51
  bay_1015  CHD  1 44 52
  bay_1016  CHD  1 44 53
  bay_1017  CHD  1 44 54
  bay_1018  CHD  1 44 55
  bay_1019  CHD  1 44 56
  bay_1020  CHD  1 44 57
  bay_1021  CHD  1 44 58
  bay_1022  CHD  1 44 59
  bay_1023  CHD  1 44 60
  bay_1024  CHD  1 44 61
  bay_1025  CHD  1 44 62
  bay_1026  CHD  1 45 42
  bay_1027  CHD  1 45 43
  bay_1028  CHD  1 45 44
  bay_1029  CHD  1 45 45
  bay_1030  CHD  1 45 46
  bay_1031  CHD  1 45 47
  bay_1032  CHD  1 45 48
  bay_1033  CHD  1 45 49
  bay_1034  CHD  1 45 50
  bay_1035  CHD  1 45 51
  bay_1036  CHD  1 45 52
  bay_1037  CHD  1 45 53
  bay_1038  CHD  1 45 54
  bay_1039  CHD  1 45 55
  bay_1040  CHD  1 45 56
  bay_1041  CHD  1 45 57
  bay_1042  CHD  1 45 58
  bay_1043  CHD  1 45 59
  bay_1044  CHD  1 45 60
  bay_1045  CHD  1 45 61
  bay_1046  CHD  1 45 62
  bay_1047  CHD  1 45 63
  bay_1048  CHD  1 46 43
  bay_1049  CHD  1 46 44
  bay_1050  CHD  1 46 45
  bay_1051  CHD  1 46 46
  bay_1052  CHD  1 46 47
  bay_1053  CHD  1 46 48
  bay_1054  CHD  1 46 49
  bay_1055  CHD  1 46 50
  bay_1056  CHD  1 46 51
  bay_1057  CHD  1 46 52
  bay_1058  CHD  1 46 53
  bay_1059  CHD  1 46 54
  bay_1060  CHD  1 46 55
  bay_1061  CHD  1 46 56
  bay_1062  CHD  1 46 57
  bay_1063  CHD  1 46 58
  bay_1064  CHD  1 46 59
  bay_1065  CHD  1 46 60
  bay_1066  CHD  1 46 61
  bay_1067  CHD  1 46 62
  bay_1068  CHD  1 46 63
  bay_1069  CHD  1 47 44
  bay_1070  CHD  1 47 45
  bay_1071  CHD  1 47 46
  bay_1072  CHD  1 47 47
  bay_1073  CHD  1 47 48
  bay_1074  CHD  1 47 49
  bay_1075  CHD  1 47 50
  bay_1076  CHD  1 47 51
  bay_1077  CHD  1 47 52
  bay_1078  CHD  1 47 53
  bay_1079  CHD  1 47 54
  bay_1080  CHD  1 47 55
  bay_1081  CHD  1 47 56
  bay_1082  CHD  1 47 57
  bay_1083  CHD  1 47 58
  bay_1084  CHD  1 47 59
  bay_1085  CHD  1 47 60
  bay_1086  CHD  1 47 61
  bay_1087  CHD  1 47 62
  bay_1088  CHD  1 47 63
  bay_1089  CHD  1 48 45
  bay_1090  CHD  1 48 46
  bay_1091  CHD  1 48 47
  bay_1092  CHD  1 48 48
  bay_1093  CHD  1 48 49
  bay_1094  CHD  1 48 50
  bay_1095  CHD  1 48 51
  bay_1096  CHD  1 48 52
  bay_1097  CHD  1 48 53
  bay_1098  CHD  1 48 54
  bay_1099  CHD  1 48 55
  bay_1100  CHD  1 48 56
  bay_1101  CHD  1 48 57
  bay_1102  CHD  1 48 58
  bay_1103  CHD  1 48 59
  bay_1104  CHD  1 48 60
  bay_1105  CHD  1 48 61
  bay_1106  CHD  1 48 62
  bay_1107  CHD  1 48 63
  bay_1108  CHD  1 49 46
  bay_1109  CHD  1 49 47
  bay_1110  CHD  1 49 48
  bay_1111  CHD  1 49 49
  bay_1112  CHD  1 49 50
  bay_1113  CHD  1 49 51
  bay_1114  CHD  1 49 52
  bay_1115  CHD  1 49 53
  bay_1116  CHD  1 49 54
  bay_1117  CHD  1 49 55
  bay_1118  CHD  1 49 56
  bay_1119  CHD  1 49 57
  bay_1120  CHD  1 49 58
  bay_1121  CHD  1 49 59
  bay_1122  CHD  1 49 60
  bay_1123  CHD  1 49 61
  bay_1124  CHD  1 49 62
  bay_1125  CHD  1 49 63
  bay_1126  CHD  1 50 47
  bay_1127  CHD  1 50 48
  bay_1128  CHD  1 50 49
  bay_1129  CHD  1 50 50
  bay_1130  CHD  1 50 51
  bay_1131  CHD  1 50 52
  bay_1132  CHD  1 50 53
  bay_1133  CHD  1 50 54
  bay_1134  CHD  1 50 55
  bay_1135  CHD  1 50 56
  bay_1136  CHD  1 50 57
  bay_1137  CHD  1 50 58
  bay_1138  CHD  1 50 59
  bay_1139  CHD  1 50 60
  bay_1140  CHD  1 50 61
  bay_1141  CHD  1 50 62
  bay_1142  CHD  1 50 63
  bay_1143  CHD  1 50 64
  bay_1144  CHD  1 51 48
  bay_1145  CHD  1 51 49
  bay_1146  CHD  1 51 50
  bay_1147  CHD  1 51 51
  bay_1148  CHD  1 51 52
  bay_1149  CHD  1 51 53
  bay_1150  CHD  1 51 54
  bay_1151  CHD  1 51 55
  bay_1152  CHD  1 51 56
  bay_1153  CHD  1 51 57
  bay_1154  CHD  1 51 58
  bay_1155  CHD  1 51 59
  bay_1156  CHD  1 51 60
  bay_1157  CHD  1 51 61
  bay_1158  CHD  1 51 62
  bay_1159  CHD  1 51 63
  bay_1160  CHD  1 51 64
  bay_1161  CHD  1 52 49
  bay_1162  CHD  1 52 50
  bay_1163  CHD  1 52 51
  bay_1164  CHD  1 52 52
  bay_1165  CHD  1 52 53
  bay_1166  CHD  1 52 54
  bay_1167  CHD  1 52 55
  bay_1168  CHD  1 52 56
  bay_1169  CHD  1 52 57
  bay_1170  CHD  1 52 58
  bay_1171  CHD  1 52 59
  bay_1172  CHD  1 52 60
  bay_1173  CHD  1 52 61
  bay_1174  CHD  1 52 62
  bay_1175  CHD  1 52 63
  bay_1176  CHD  1 52 64
  bay_1177  CHD  1 53 49
  bay_1178  CHD  1 53 50
  bay_1179  CHD  1 53 51
  bay_1180  CHD  1 53 52
  bay_1181  CHD  1 53 53
  bay_1182  CHD  1 53 54
  bay_1183  CHD  1 53 55
  bay_1184  CHD  1 53 56
  bay_1185  CHD  1 53 57
  bay_1186  CHD  1 53 58
  bay_1187  CHD  1 53 59
  bay_1188  CHD  1 53 60
  bay_1189  CHD  1 53 61
  bay_1190  CHD  1 53 62
  bay_1191  CHD  1 53 63
  bay_1192  CHD  1 53 64
  bay_1193  CHD  1 54 51
  bay_1194  CHD  1 54 52
  bay_1195  CHD  1 54 53
  bay_1196  CHD  1 54 54
  bay_1197  CHD  1 54 55
  bay_1198  CHD  1 54 56
  bay_1199  CHD  1 54 57
  bay_1200  CHD  1 54 58
  bay_1201  CHD  1 54 59
  bay_1202  CHD  1 54 60
  bay_1203  CHD  1 54 61
  bay_1204  CHD  1 54 62
  bay_1205  CHD  1 54 63
  bay_1206  CHD  1 54 64
  bay_1207  CHD  1 55 53
  bay_1208  CHD  1 55 54
  bay_1209  CHD  1 55 55
  bay_1210  CHD  1 55 56
  bay_1211  CHD  1 55 57
  bay_1212  CHD  1 55 58
  bay_1213  CHD  1 55 59
  bay_1214  CHD  1 55 60
  bay_1215  CHD  1 55 61
  bay_1216  CHD  1 55 62
  bay_1217  CHD  1 55 63
  bay_1218  CHD  1 55 64
  bay_1219  CHD  1 55 65
  bay_1220  CHD  1 56 53
  bay_1221  CHD  1 56 54
  bay_1222  CHD  1 56 55
  bay_1223  CHD  1 56 56
  bay_1224  CHD  1 56 57
  bay_1225  CHD  1 56 58
  bay_1226  CHD  1 56 59
  bay_1227  CHD  1 56 60
  bay_1228  CHD  1 56 61
  bay_1229  CHD  1 56 62
  bay_1230  CHD  1 56 63
  bay_1231  CHD  1 56 64
  bay_1232  CHD  1 56 65
  bay_1233  CHD  1 57 54
  bay_1234  CHD  1 57 55
  bay_1235  CHD  1 57 56
  bay_1236  CHD  1 57 57
  bay_1237  CHD  1 57 58
  bay_1238  CHD  1 57 59
  bay_1239  CHD  1 57 60
  bay_1240  CHD  1 57 61