# File generated by Flopy version 3.9.1 on 09/02/2025 at 12:05:04.
BEGIN options
  FLOW_IMBALANCE_CORRECTION
END options

