# File generated by Flopy version 3.9.1 on 08/26/2025 at 17:04:13.
BEGIN options
END options

BEGIN sources
  ghb  aux  salinity
  drn  aux  salinity
  chd_coast  aux  salinity
  CHD_perimeter  aux  salinity
END sources

