# File generated by Flopy version 3.9.1 on 09/02/2025 at 12:05:04.
BEGIN options
END options

BEGIN sources
  ghb  aux  salinity
  drn  aux  salinity
  chd_coast  aux  salinity
  chd_perimeter  aux  salinity
END sources

