# File generated by Flopy version 3.9.1 on 09/02/2025 at 12:05:05.
BEGIN options
END options

BEGIN griddata
  strt  LAYERED
    OPEN/CLOSE  'external/s_ic_00.dat'  FACTOR  1.0
    OPEN/CLOSE  'external/s_ic_01.dat'  FACTOR  1.0
    OPEN/CLOSE  'external/s_ic_02.dat'  FACTOR  1.0
    OPEN/CLOSE  'external/s_ic_03.dat'  FACTOR  1.0
    OPEN/CLOSE  'external/s_ic_04.dat'  FACTOR  1.0
    OPEN/CLOSE  'external/s_ic_05.dat'  FACTOR  1.0
    OPEN/CLOSE  'external/s_ic_06.dat'  FACTOR  1.0
    OPEN/CLOSE  'external/s_ic_07.dat'  FACTOR  1.0
    OPEN/CLOSE  'external/s_ic_08.dat'  FACTOR  1.0
    OPEN/CLOSE  'external/s_ic_09.dat'  FACTOR  1.0
    OPEN/CLOSE  'external/s_ic_10.dat'  FACTOR  1.0
    OPEN/CLOSE  'external/s_ic_11.dat'  FACTOR  1.0
    OPEN/CLOSE  'external/s_ic_12.dat'  FACTOR  1.0
    OPEN/CLOSE  'external/s_ic_13.dat'  FACTOR  1.0
    OPEN/CLOSE  'external/s_ic_14.dat'  FACTOR  1.0
    OPEN/CLOSE  'external/s_ic_15.dat'  FACTOR  1.0
    OPEN/CLOSE  'external/s_ic_16.dat'  FACTOR  1.0
    OPEN/CLOSE  'external/s_ic_17.dat'  FACTOR  1.0
    OPEN/CLOSE  'external/s_ic_18.dat'  FACTOR  1.0
    OPEN/CLOSE  'external/s_ic_19.dat'  FACTOR  1.0
END griddata

