# File generated by Flopy version 3.9.1 on 08/26/2025 at 17:04:13.
BEGIN options
  FLOW_IMBALANCE_CORRECTION
END options

