# File generated by Flopy version 3.9.1 on 08/26/2025 at 17:04:13.
BEGIN options
END options

BEGIN packages
  FMI6  gwt.fmi  fmi
  SSM6  gwt.ssm  ssm
  MST6  gwt.mst  mst
  ADV6  gwt.adv  adv
  IC6  gwt.ic  ic
  DIS6  gwt.dis  dis
  OC6  gwt.oc  oc
END packages

