# File generated by Flopy version 3.9.1 on 09/02/2025 at 12:05:04.
BEGIN options
END options

BEGIN packages
  fmi6  gwt.fmi  fmi
  ssm6  gwt.ssm  ssm
  mst6  gwt.mst  mst
  adv6  gwt.adv  adv
  ic6  gwt.ic  ic
  dis6  gwt.dis  dis
  oc6  gwt.oc  oc
END packages

