# File generated by Flopy version 3.9.1 on 08/26/2025 at 17:03:42.
BEGIN options
END options

BEGIN timing
  TDIS6  sim.tdis
END timing

BEGIN models
  gwf6  gwf.nam  gwf
  gwt6  gwt.nam  gwt
END models

BEGIN exchanges
  GWF6-GWT6  gwf_gwt.gwfgwt  gwf  gwt
END exchanges

BEGIN solutiongroup  1
  ims6  gwf.ims  gwf
  ims6  modflowsim.ims  gwt
END solutiongroup  1

