# File generated by Flopy version 3.9.1 on 09/02/2025 at 12:04:43.
BEGIN options
END options

BEGIN timing
  TDIS6  sim.tdis
END timing

BEGIN models
  gwf6  gwf.nam  gwf
  gwt6  gwt.nam  gwt
END models

BEGIN exchanges
  gwf6-gwt6  gwf_gwt.gwfgwt  gwf  gwt
END exchanges

BEGIN solutiongroup  1
  ims6  gwf.ims  gwf
  ims6  modflowsim.ims  gwt
END solutiongroup  1

