# File generated by Flopy version 3.9.1 on 09/02/2025 at 12:04:44.
BEGIN options
  PRINT_OPTION  summary
  COMPLEXITY  moderate
END options

