# File generated by Flopy version 3.9.1 on 09/22/2025 at 10:13:51.
BEGIN options
  auxiliary  salinity
  BOUNDNAMES
  SAVE_FLOWS
END options

BEGIN dimensions
  MAXBOUND  10138
END dimensions

BEGIN period  1
    OPEN/CLOSE  './external/chd_000.dat'
END period  1

BEGIN period  2
    OPEN/CLOSE  './external/chd_001.dat'
END period  2

BEGIN period  3
    OPEN/CLOSE  './external/chd_002.dat'
END period  3

BEGIN period  4
    OPEN/CLOSE  './external/chd_003.dat'
END period  4

BEGIN period  5
    OPEN/CLOSE  './external/chd_004.dat'
END period  5

BEGIN period  6
    OPEN/CLOSE  './external/chd_005.dat'
END period  6

BEGIN period  7
    OPEN/CLOSE  './external/chd_006.dat'
END period  7

BEGIN period  8
    OPEN/CLOSE  './external/chd_007.dat'
END period  8

BEGIN period  9
    OPEN/CLOSE  './external/chd_008.dat'
END period  9

BEGIN period  10
    OPEN/CLOSE  './external/chd_009.dat'
END period  10

BEGIN period  11
    OPEN/CLOSE  './external/chd_010.dat'
END period  11

BEGIN period  12
    OPEN/CLOSE  './external/chd_011.dat'
END period  12

BEGIN period  13
    OPEN/CLOSE  './external/chd_012.dat'
END period  13

BEGIN period  14
    OPEN/CLOSE  './external/chd_013.dat'
END period  14

BEGIN period  15
    OPEN/CLOSE  './external/chd_014.dat'
END period  15

BEGIN period  16
    OPEN/CLOSE  './external/chd_015.dat'
END period  16

BEGIN period  17
    OPEN/CLOSE  './external/chd_016.dat'
END period  17

BEGIN period  18
    OPEN/CLOSE  './external/chd_017.dat'
END period  18

BEGIN period  19
    OPEN/CLOSE  './external/chd_018.dat'
END period  19

BEGIN period  20
    OPEN/CLOSE  './external/chd_019.dat'
END period  20

BEGIN period  21
    OPEN/CLOSE  './external/chd_020.dat'
END period  21

BEGIN period  22
    OPEN/CLOSE  './external/chd_021.dat'
END period  22

BEGIN period  23
    OPEN/CLOSE  './external/chd_022.dat'
END period  23

BEGIN period  24
    OPEN/CLOSE  './external/chd_023.dat'
END period  24

BEGIN period  25
    OPEN/CLOSE  './external/chd_024.dat'
END period  25

BEGIN period  26
    OPEN/CLOSE  './external/chd_025.dat'
END period  26

BEGIN period  27
    OPEN/CLOSE  './external/chd_026.dat'
END period  27

BEGIN period  28
    OPEN/CLOSE  './external/chd_027.dat'
END period  28

BEGIN period  29
    OPEN/CLOSE  './external/chd_028.dat'
END period  29

BEGIN period  30
    OPEN/CLOSE  './external/chd_029.dat'
END period  30

BEGIN period  31
    OPEN/CLOSE  './external/chd_030.dat'
END period  31

BEGIN period  32
    OPEN/CLOSE  './external/chd_031.dat'
END period  32

BEGIN period  33
    OPEN/CLOSE  './external/chd_032.dat'
END period  33

BEGIN period  34
    OPEN/CLOSE  './external/chd_033.dat'
END period  34

BEGIN period  35
    OPEN/CLOSE  './external/chd_034.dat'
END period  35

BEGIN period  36
    OPEN/CLOSE  './external/chd_035.dat'
END period  36

BEGIN period  37
    OPEN/CLOSE  './external/chd_036.dat'
END period  37

BEGIN period  38
    OPEN/CLOSE  './external/chd_037.dat'
END period  38

BEGIN period  39
    OPEN/CLOSE  './external/chd_038.dat'
END period  39

BEGIN period  40
    OPEN/CLOSE  './external/chd_039.dat'
END period  40

BEGIN period  41
    OPEN/CLOSE  './external/chd_040.dat'
END period  41

BEGIN period  42
    OPEN/CLOSE  './external/chd_041.dat'
END period  42

BEGIN period  43
    OPEN/CLOSE  './external/chd_042.dat'
END period  43

BEGIN period  44
    OPEN/CLOSE  './external/chd_043.dat'
END period  44

BEGIN period  45
    OPEN/CLOSE  './external/chd_044.dat'
END period  45

BEGIN period  46
    OPEN/CLOSE  './external/chd_045.dat'
END period  46

BEGIN period  47
    OPEN/CLOSE  './external/chd_046.dat'
END period  47

BEGIN period  48
    OPEN/CLOSE  './external/chd_047.dat'
END period  48

BEGIN period  49
    OPEN/CLOSE  './external/chd_048.dat'
END period  49

BEGIN period  50
    OPEN/CLOSE  './external/chd_049.dat'
END period  50

BEGIN period  51
    OPEN/CLOSE  './external/chd_050.dat'
END period  51

BEGIN period  52
    OPEN/CLOSE  './external/chd_051.dat'
END period  52

BEGIN period  53
    OPEN/CLOSE  './external/chd_052.dat'
END period  53

BEGIN period  54
    OPEN/CLOSE  './external/chd_053.dat'
END period  54

BEGIN period  55
    OPEN/CLOSE  './external/chd_054.dat'
END period  55

BEGIN period  56
    OPEN/CLOSE  './external/chd_055.dat'
END period  56

BEGIN period  57
    OPEN/CLOSE  './external/chd_056.dat'
END period  57

BEGIN period  58
    OPEN/CLOSE  './external/chd_057.dat'
END period  58

BEGIN period  59
    OPEN/CLOSE  './external/chd_058.dat'
END period  59

BEGIN period  60
    OPEN/CLOSE  './external/chd_059.dat'
END period  60

BEGIN period  61
    OPEN/CLOSE  './external/chd_060.dat'
END period  61

BEGIN period  62
    OPEN/CLOSE  './external/chd_061.dat'
END period  62

BEGIN period  63
    OPEN/CLOSE  './external/chd_062.dat'
END period  63

BEGIN period  64
    OPEN/CLOSE  './external/chd_063.dat'
END period  64

BEGIN period  65
    OPEN/CLOSE  './external/chd_064.dat'
END period  65

BEGIN period  66
    OPEN/CLOSE  './external/chd_065.dat'
END period  66

BEGIN period  67
    OPEN/CLOSE  './external/chd_066.dat'
END period  67

BEGIN period  68
    OPEN/CLOSE  './external/chd_067.dat'
END period  68

BEGIN period  69
    OPEN/CLOSE  './external/chd_068.dat'
END period  69

BEGIN period  70
    OPEN/CLOSE  './external/chd_069.dat'
END period  70

BEGIN period  71
    OPEN/CLOSE  './external/chd_070.dat'
END period  71

BEGIN period  72
    OPEN/CLOSE  './external/chd_071.dat'
END period  72

BEGIN period  73
    OPEN/CLOSE  './external/chd_072.dat'
END period  73

BEGIN period  74
    OPEN/CLOSE  './external/chd_073.dat'
END period  74

BEGIN period  75
    OPEN/CLOSE  './external/chd_074.dat'
END period  75

BEGIN period  76
    OPEN/CLOSE  './external/chd_075.dat'
END period  76

BEGIN period  77
    OPEN/CLOSE  './external/chd_076.dat'
END period  77

BEGIN period  78
    OPEN/CLOSE  './external/chd_077.dat'
END period  78

BEGIN period  79
    OPEN/CLOSE  './external/chd_078.dat'
END period  79

BEGIN period  80
    OPEN/CLOSE  './external/chd_079.dat'
END period  80

BEGIN period  81
    OPEN/CLOSE  './external/chd_080.dat'
END period  81

BEGIN period  82
    OPEN/CLOSE  './external/chd_081.dat'
END period  82

BEGIN period  83
    OPEN/CLOSE  './external/chd_082.dat'
END period  83

BEGIN period  84
    OPEN/CLOSE  './external/chd_083.dat'
END period  84

BEGIN period  85
    OPEN/CLOSE  './external/chd_084.dat'
END period  85

BEGIN period  86
    OPEN/CLOSE  './external/chd_085.dat'
END period  86

BEGIN period  87
    OPEN/CLOSE  './external/chd_086.dat'
END period  87

BEGIN period  88
    OPEN/CLOSE  './external/chd_087.dat'
END period  88

BEGIN period  89
    OPEN/CLOSE  './external/chd_088.dat'
END period  89

BEGIN period  90
    OPEN/CLOSE  './external/chd_089.dat'
END period  90

BEGIN period  91
    OPEN/CLOSE  './external/chd_090.dat'
END period  91

BEGIN period  92
    OPEN/CLOSE  './external/chd_091.dat'
END period  92

BEGIN period  93
    OPEN/CLOSE  './external/chd_092.dat'
END period  93

BEGIN period  94
    OPEN/CLOSE  './external/chd_093.dat'
END period  94

BEGIN period  95
    OPEN/CLOSE  './external/chd_094.dat'
END period  95

BEGIN period  96
    OPEN/CLOSE  './external/chd_095.dat'
END period  96

BEGIN period  97
    OPEN/CLOSE  './external/chd_096.dat'
END period  97

BEGIN period  98
    OPEN/CLOSE  './external/chd_097.dat'
END period  98

BEGIN period  99
    OPEN/CLOSE  './external/chd_098.dat'
END period  99

BEGIN period  100
    OPEN/CLOSE  './external/chd_099.dat'
END period  100

BEGIN period  101
    OPEN/CLOSE  './external/chd_100.dat'
END period  101

BEGIN period  102
    OPEN/CLOSE  './external/chd_101.dat'
END period  102

BEGIN period  103
    OPEN/CLOSE  './external/chd_102.dat'
END period  103

BEGIN period  104
    OPEN/CLOSE  './external/chd_103.dat'
END period  104

BEGIN period  105
    OPEN/CLOSE  './external/chd_104.dat'
END period  105

BEGIN period  106
    OPEN/CLOSE  './external/chd_105.dat'
END period  106

BEGIN period  107
    OPEN/CLOSE  './external/chd_106.dat'
END period  107

BEGIN period  108
    OPEN/CLOSE  './external/chd_107.dat'
END period  108

BEGIN period  109
    OPEN/CLOSE  './external/chd_108.dat'
END period  109

BEGIN period  110
    OPEN/CLOSE  './external/chd_109.dat'
END period  110

BEGIN period  111
    OPEN/CLOSE  './external/chd_110.dat'
END period  111

BEGIN period  112
    OPEN/CLOSE  './external/chd_111.dat'
END period  112

BEGIN period  113
    OPEN/CLOSE  './external/chd_112.dat'
END period  113

BEGIN period  114
    OPEN/CLOSE  './external/chd_113.dat'
END period  114

BEGIN period  115
    OPEN/CLOSE  './external/chd_114.dat'
END period  115

BEGIN period  116
    OPEN/CLOSE  './external/chd_115.dat'
END period  116

BEGIN period  117
    OPEN/CLOSE  './external/chd_116.dat'
END period  117

BEGIN period  118
    OPEN/CLOSE  './external/chd_117.dat'
END period  118

BEGIN period  119
    OPEN/CLOSE  './external/chd_118.dat'
END period  119

BEGIN period  120
    OPEN/CLOSE  './external/chd_119.dat'
END period  120

BEGIN period  121
    OPEN/CLOSE  './external/chd_120.dat'
END period  121

BEGIN period  122
    OPEN/CLOSE  './external/chd_121.dat'
END period  122

BEGIN period  123
    OPEN/CLOSE  './external/chd_122.dat'
END period  123

BEGIN period  124
    OPEN/CLOSE  './external/chd_123.dat'
END period  124

BEGIN period  125
    OPEN/CLOSE  './external/chd_124.dat'
END period  125

BEGIN period  126
    OPEN/CLOSE  './external/chd_125.dat'
END period  126

BEGIN period  127
    OPEN/CLOSE  './external/chd_126.dat'
END period  127

BEGIN period  128
    OPEN/CLOSE  './external/chd_127.dat'
END period  128

BEGIN period  129
    OPEN/CLOSE  './external/chd_128.dat'
END period  129

BEGIN period  130
    OPEN/CLOSE  './external/chd_129.dat'
END period  130

BEGIN period  131
    OPEN/CLOSE  './external/chd_130.dat'
END period  131

BEGIN period  132
    OPEN/CLOSE  './external/chd_131.dat'
END period  132

BEGIN period  133
    OPEN/CLOSE  './external/chd_132.dat'
END period  133

BEGIN period  134
    OPEN/CLOSE  './external/chd_133.dat'
END period  134

BEGIN period  135
    OPEN/CLOSE  './external/chd_134.dat'
END period  135

BEGIN period  136
    OPEN/CLOSE  './external/chd_135.dat'
END period  136

BEGIN period  137
    OPEN/CLOSE  './external/chd_136.dat'
END period  137

BEGIN period  138
    OPEN/CLOSE  './external/chd_137.dat'
END period  138

BEGIN period  139
    OPEN/CLOSE  './external/chd_138.dat'
END period  139

BEGIN period  140
    OPEN/CLOSE  './external/chd_139.dat'
END period  140

BEGIN period  141
    OPEN/CLOSE  './external/chd_140.dat'
END period  141

BEGIN period  142
    OPEN/CLOSE  './external/chd_141.dat'
END period  142

BEGIN period  143
    OPEN/CLOSE  './external/chd_142.dat'
END period  143

BEGIN period  144
    OPEN/CLOSE  './external/chd_143.dat'
END period  144

BEGIN period  145
    OPEN/CLOSE  './external/chd_144.dat'
END period  145

BEGIN period  146
    OPEN/CLOSE  './external/chd_145.dat'
END period  146

BEGIN period  147
    OPEN/CLOSE  './external/chd_146.dat'
END period  147

BEGIN period  148
    OPEN/CLOSE  './external/chd_147.dat'
END period  148

BEGIN period  149
    OPEN/CLOSE  './external/chd_148.dat'
END period  149

BEGIN period  150
    OPEN/CLOSE  './external/chd_149.dat'
END period  150

BEGIN period  151
    OPEN/CLOSE  './external/chd_150.dat'
END period  151

BEGIN period  152
    OPEN/CLOSE  './external/chd_151.dat'
END period  152

BEGIN period  153
    OPEN/CLOSE  './external/chd_152.dat'
END period  153

BEGIN period  154
    OPEN/CLOSE  './external/chd_153.dat'
END period  154

BEGIN period  155
    OPEN/CLOSE  './external/chd_154.dat'
END period  155

BEGIN period  156
    OPEN/CLOSE  './external/chd_155.dat'
END period  156

BEGIN period  157
    OPEN/CLOSE  './external/chd_156.dat'
END period  157

BEGIN period  158
    OPEN/CLOSE  './external/chd_157.dat'
END period  158

BEGIN period  159
    OPEN/CLOSE  './external/chd_158.dat'
END period  159

BEGIN period  160
    OPEN/CLOSE  './external/chd_159.dat'
END period  160

BEGIN period  161
    OPEN/CLOSE  './external/chd_160.dat'
END period  161

BEGIN period  162
    OPEN/CLOSE  './external/chd_161.dat'
END period  162

BEGIN period  163
    OPEN/CLOSE  './external/chd_162.dat'
END period  163

BEGIN period  164
    OPEN/CLOSE  './external/chd_163.dat'
END period  164

BEGIN period  165
    OPEN/CLOSE  './external/chd_164.dat'
END period  165

BEGIN period  166
    OPEN/CLOSE  './external/chd_165.dat'
END period  166

BEGIN period  167
    OPEN/CLOSE  './external/chd_166.dat'
END period  167

BEGIN period  168
    OPEN/CLOSE  './external/chd_167.dat'
END period  168

BEGIN period  169
    OPEN/CLOSE  './external/chd_168.dat'
END period  169

BEGIN period  170
    OPEN/CLOSE  './external/chd_169.dat'
END period  170

BEGIN period  171
    OPEN/CLOSE  './external/chd_170.dat'
END period  171

BEGIN period  172
    OPEN/CLOSE  './external/chd_171.dat'
END period  172

BEGIN period  173
    OPEN/CLOSE  './external/chd_172.dat'
END period  173

BEGIN period  174
    OPEN/CLOSE  './external/chd_173.dat'
END period  174

BEGIN period  175
    OPEN/CLOSE  './external/chd_174.dat'
END period  175

BEGIN period  176
    OPEN/CLOSE  './external/chd_175.dat'
END period  176

BEGIN period  177
    OPEN/CLOSE  './external/chd_176.dat'
END period  177

BEGIN period  178
    OPEN/CLOSE  './external/chd_177.dat'
END period  178

BEGIN period  179
    OPEN/CLOSE  './external/chd_178.dat'
END period  179

BEGIN period  180
    OPEN/CLOSE  './external/chd_179.dat'
END period  180

BEGIN period  181
    OPEN/CLOSE  './external/chd_180.dat'
END period  181

BEGIN period  182
    OPEN/CLOSE  './external/chd_181.dat'
END period  182

BEGIN period  183
    OPEN/CLOSE  './external/chd_182.dat'
END period  183

BEGIN period  184
    OPEN/CLOSE  './external/chd_183.dat'
END period  184

BEGIN period  185
    OPEN/CLOSE  './external/chd_184.dat'
END period  185

BEGIN period  186
    OPEN/CLOSE  './external/chd_185.dat'
END period  186

BEGIN period  187
    OPEN/CLOSE  './external/chd_186.dat'
END period  187

BEGIN period  188
    OPEN/CLOSE  './external/chd_187.dat'
END period  188

BEGIN period  189
    OPEN/CLOSE  './external/chd_188.dat'
END period  189

BEGIN period  190
    OPEN/CLOSE  './external/chd_189.dat'
END period  190

BEGIN period  191
    OPEN/CLOSE  './external/chd_190.dat'
END period  191

BEGIN period  192
    OPEN/CLOSE  './external/chd_191.dat'
END period  192

BEGIN period  193
    OPEN/CLOSE  './external/chd_192.dat'
END period  193

BEGIN period  194
    OPEN/CLOSE  './external/chd_193.dat'
END period  194

BEGIN period  195
    OPEN/CLOSE  './external/chd_194.dat'
END period  195

BEGIN period  196
    OPEN/CLOSE  './external/chd_195.dat'
END period  196

BEGIN period  197
    OPEN/CLOSE  './external/chd_196.dat'
END period  197

BEGIN period  198
    OPEN/CLOSE  './external/chd_197.dat'
END period  198

BEGIN period  199
    OPEN/CLOSE  './external/chd_198.dat'
END period  199

BEGIN period  200
    OPEN/CLOSE  './external/chd_199.dat'
END period  200

BEGIN period  201
    OPEN/CLOSE  './external/chd_200.dat'
END period  201

BEGIN period  202
    OPEN/CLOSE  './external/chd_201.dat'
END period  202

BEGIN period  203
    OPEN/CLOSE  './external/chd_202.dat'
END period  203

BEGIN period  204
    OPEN/CLOSE  './external/chd_203.dat'
END period  204

BEGIN period  205
    OPEN/CLOSE  './external/chd_204.dat'
END period  205

BEGIN period  206
    OPEN/CLOSE  './external/chd_205.dat'
END period  206

BEGIN period  207
    OPEN/CLOSE  './external/chd_206.dat'
END period  207

BEGIN period  208
    OPEN/CLOSE  './external/chd_207.dat'
END period  208

BEGIN period  209
    OPEN/CLOSE  './external/chd_208.dat'
END period  209

BEGIN period  210
    OPEN/CLOSE  './external/chd_209.dat'
END period  210

BEGIN period  211
    OPEN/CLOSE  './external/chd_210.dat'
END period  211

BEGIN period  212
    OPEN/CLOSE  './external/chd_211.dat'
END period  212

BEGIN period  213
    OPEN/CLOSE  './external/chd_212.dat'
END period  213

BEGIN period  214
    OPEN/CLOSE  './external/chd_213.dat'
END period  214

BEGIN period  215
    OPEN/CLOSE  './external/chd_214.dat'
END period  215

BEGIN period  216
    OPEN/CLOSE  './external/chd_215.dat'
END period  216

BEGIN period  217
    OPEN/CLOSE  './external/chd_216.dat'
END period  217

BEGIN period  218
    OPEN/CLOSE  './external/chd_217.dat'
END period  218

BEGIN period  219
    OPEN/CLOSE  './external/chd_218.dat'
END period  219

BEGIN period  220
    OPEN/CLOSE  './external/chd_219.dat'
END period  220

BEGIN period  221
    OPEN/CLOSE  './external/chd_220.dat'
END period  221

BEGIN period  222
    OPEN/CLOSE  './external/chd_221.dat'
END period  222

BEGIN period  223
    OPEN/CLOSE  './external/chd_222.dat'
END period  223

BEGIN period  224
    OPEN/CLOSE  './external/chd_223.dat'
END period  224

BEGIN period  225
    OPEN/CLOSE  './external/chd_224.dat'
END period  225

BEGIN period  226
    OPEN/CLOSE  './external/chd_225.dat'
END period  226

BEGIN period  227
    OPEN/CLOSE  './external/chd_226.dat'
END period  227

BEGIN period  228
    OPEN/CLOSE  './external/chd_227.dat'
END period  228

BEGIN period  229
    OPEN/CLOSE  './external/chd_228.dat'
END period  229

BEGIN period  230
    OPEN/CLOSE  './external/chd_229.dat'
END period  230

BEGIN period  231
    OPEN/CLOSE  './external/chd_230.dat'
END period  231

BEGIN period  232
    OPEN/CLOSE  './external/chd_231.dat'
END period  232

BEGIN period  233
    OPEN/CLOSE  './external/chd_232.dat'
END period  233

BEGIN period  234
    OPEN/CLOSE  './external/chd_233.dat'
END period  234

BEGIN period  235
    OPEN/CLOSE  './external/chd_234.dat'
END period  235

BEGIN period  236
    OPEN/CLOSE  './external/chd_235.dat'
END period  236

BEGIN period  237
    OPEN/CLOSE  './external/chd_236.dat'
END period  237

BEGIN period  238
    OPEN/CLOSE  './external/chd_237.dat'
END period  238

BEGIN period  239
    OPEN/CLOSE  './external/chd_238.dat'
END period  239

BEGIN period  240
    OPEN/CLOSE  './external/chd_239.dat'
END period  240

BEGIN period  241
    OPEN/CLOSE  './external/chd_240.dat'
END period  241

BEGIN period  242
    OPEN/CLOSE  './external/chd_241.dat'
END period  242

BEGIN period  243
    OPEN/CLOSE  './external/chd_242.dat'
END period  243

BEGIN period  244
    OPEN/CLOSE  './external/chd_243.dat'
END period  244

BEGIN period  245
    OPEN/CLOSE  './external/chd_244.dat'
END period  245

BEGIN period  246
    OPEN/CLOSE  './external/chd_245.dat'
END period  246

BEGIN period  247
    OPEN/CLOSE  './external/chd_246.dat'
END period  247

BEGIN period  248
    OPEN/CLOSE  './external/chd_247.dat'
END period  248

BEGIN period  249
    OPEN/CLOSE  './external/chd_248.dat'
END period  249

BEGIN period  250
    OPEN/CLOSE  './external/chd_249.dat'
END period  250

BEGIN period  251
    OPEN/CLOSE  './external/chd_250.dat'
END period  251

BEGIN period  252
    OPEN/CLOSE  './external/chd_251.dat'
END period  252

BEGIN period  253
    OPEN/CLOSE  './external/chd_252.dat'
END period  253

BEGIN period  254
    OPEN/CLOSE  './external/chd_253.dat'
END period  254

BEGIN period  255
    OPEN/CLOSE  './external/chd_254.dat'
END period  255

BEGIN period  256
    OPEN/CLOSE  './external/chd_255.dat'
END period  256

BEGIN period  257
    OPEN/CLOSE  './external/chd_256.dat'
END period  257

BEGIN period  258
    OPEN/CLOSE  './external/chd_257.dat'
END period  258

BEGIN period  259
    OPEN/CLOSE  './external/chd_258.dat'
END period  259

BEGIN period  260
    OPEN/CLOSE  './external/chd_259.dat'
END period  260

BEGIN period  261
    OPEN/CLOSE  './external/chd_260.dat'
END period  261

BEGIN period  262
    OPEN/CLOSE  './external/chd_261.dat'
END period  262

BEGIN period  263
    OPEN/CLOSE  './external/chd_262.dat'
END period  263

BEGIN period  264
    OPEN/CLOSE  './external/chd_263.dat'
END period  264

BEGIN period  265
    OPEN/CLOSE  './external/chd_264.dat'
END period  265

BEGIN period  266
    OPEN/CLOSE  './external/chd_265.dat'
END period  266

BEGIN period  267
    OPEN/CLOSE  './external/chd_266.dat'
END period  267

BEGIN period  268
    OPEN/CLOSE  './external/chd_267.dat'
END period  268

BEGIN period  269
    OPEN/CLOSE  './external/chd_268.dat'
END period  269

BEGIN period  270
    OPEN/CLOSE  './external/chd_269.dat'
END period  270

BEGIN period  271
    OPEN/CLOSE  './external/chd_270.dat'
END period  271

BEGIN period  272
    OPEN/CLOSE  './external/chd_271.dat'
END period  272

BEGIN period  273
    OPEN/CLOSE  './external/chd_272.dat'
END period  273

BEGIN period  274
    OPEN/CLOSE  './external/chd_273.dat'
END period  274

BEGIN period  275
    OPEN/CLOSE  './external/chd_274.dat'
END period  275

BEGIN period  276
    OPEN/CLOSE  './external/chd_275.dat'
END period  276

BEGIN period  277
    OPEN/CLOSE  './external/chd_276.dat'
END period  277

BEGIN period  278
    OPEN/CLOSE  './external/chd_277.dat'
END period  278

BEGIN period  279
    OPEN/CLOSE  './external/chd_278.dat'
END period  279

BEGIN period  280
    OPEN/CLOSE  './external/chd_279.dat'
END period  280

BEGIN period  281
    OPEN/CLOSE  './external/chd_280.dat'
END period  281

BEGIN period  282
    OPEN/CLOSE  './external/chd_281.dat'
END period  282

BEGIN period  283
    OPEN/CLOSE  './external/chd_282.dat'
END period  283

BEGIN period  284
    OPEN/CLOSE  './external/chd_283.dat'
END period  284

BEGIN period  285
    OPEN/CLOSE  './external/chd_284.dat'
END period  285

BEGIN period  286
    OPEN/CLOSE  './external/chd_285.dat'
END period  286

BEGIN period  287
    OPEN/CLOSE  './external/chd_286.dat'
END period  287

BEGIN period  288
    OPEN/CLOSE  './external/chd_287.dat'
END period  288

BEGIN period  289
    OPEN/CLOSE  './external/chd_288.dat'
END period  289

BEGIN period  290
    OPEN/CLOSE  './external/chd_289.dat'
END period  290

BEGIN period  291
    OPEN/CLOSE  './external/chd_290.dat'
END period  291

BEGIN period  292
    OPEN/CLOSE  './external/chd_291.dat'
END period  292

BEGIN period  293
    OPEN/CLOSE  './external/chd_292.dat'
END period  293

BEGIN period  294
    OPEN/CLOSE  './external/chd_293.dat'
END period  294

BEGIN period  295
    OPEN/CLOSE  './external/chd_294.dat'
END period  295

BEGIN period  296
    OPEN/CLOSE  './external/chd_295.dat'
END period  296

BEGIN period  297
    OPEN/CLOSE  './external/chd_296.dat'
END period  297

BEGIN period  298
    OPEN/CLOSE  './external/chd_297.dat'
END period  298

BEGIN period  299
    OPEN/CLOSE  './external/chd_298.dat'
END period  299

BEGIN period  300
    OPEN/CLOSE  './external/chd_299.dat'
END period  300

BEGIN period  301
    OPEN/CLOSE  './external/chd_300.dat'
END period  301

BEGIN period  302
    OPEN/CLOSE  './external/chd_301.dat'
END period  302

BEGIN period  303
    OPEN/CLOSE  './external/chd_302.dat'
END period  303

BEGIN period  304
    OPEN/CLOSE  './external/chd_303.dat'
END period  304

BEGIN period  305
    OPEN/CLOSE  './external/chd_304.dat'
END period  305

BEGIN period  306
    OPEN/CLOSE  './external/chd_305.dat'
END period  306

BEGIN period  307
    OPEN/CLOSE  './external/chd_306.dat'
END period  307

BEGIN period  308
    OPEN/CLOSE  './external/chd_307.dat'
END period  308

BEGIN period  309
    OPEN/CLOSE  './external/chd_308.dat'
END period  309

BEGIN period  310
    OPEN/CLOSE  './external/chd_309.dat'
END period  310

BEGIN period  311
    OPEN/CLOSE  './external/chd_310.dat'
END period  311

BEGIN period  312
    OPEN/CLOSE  './external/chd_311.dat'
END period  312

BEGIN period  313
    OPEN/CLOSE  './external/chd_312.dat'
END period  313

BEGIN period  314
    OPEN/CLOSE  './external/chd_313.dat'
END period  314

BEGIN period  315
    OPEN/CLOSE  './external/chd_314.dat'
END period  315

BEGIN period  316
    OPEN/CLOSE  './external/chd_315.dat'
END period  316

BEGIN period  317
    OPEN/CLOSE  './external/chd_316.dat'
END period  317

BEGIN period  318
    OPEN/CLOSE  './external/chd_317.dat'
END period  318

BEGIN period  319
    OPEN/CLOSE  './external/chd_318.dat'
END period  319

BEGIN period  320
    OPEN/CLOSE  './external/chd_319.dat'
END period  320

BEGIN period  321
    OPEN/CLOSE  './external/chd_320.dat'
END period  321

BEGIN period  322
    OPEN/CLOSE  './external/chd_321.dat'
END period  322

BEGIN period  323
    OPEN/CLOSE  './external/chd_322.dat'
END period  323

BEGIN period  324
    OPEN/CLOSE  './external/chd_323.dat'
END period  324

BEGIN period  325
    OPEN/CLOSE  './external/chd_324.dat'
END period  325

BEGIN period  326
    OPEN/CLOSE  './external/chd_325.dat'
END period  326

BEGIN period  327
    OPEN/CLOSE  './external/chd_326.dat'
END period  327

BEGIN period  328
    OPEN/CLOSE  './external/chd_327.dat'
END period  328

BEGIN period  329
    OPEN/CLOSE  './external/chd_328.dat'
END period  329

BEGIN period  330
    OPEN/CLOSE  './external/chd_329.dat'
END period  330

BEGIN period  331
    OPEN/CLOSE  './external/chd_330.dat'
END period  331

BEGIN period  332
    OPEN/CLOSE  './external/chd_331.dat'
END period  332

BEGIN period  333
    OPEN/CLOSE  './external/chd_332.dat'
END period  333

BEGIN period  334
    OPEN/CLOSE  './external/chd_333.dat'
END period  334

BEGIN period  335
    OPEN/CLOSE  './external/chd_334.dat'
END period  335

BEGIN period  336
    OPEN/CLOSE  './external/chd_335.dat'
END period  336

BEGIN period  337
    OPEN/CLOSE  './external/chd_336.dat'
END period  337

BEGIN period  338
    OPEN/CLOSE  './external/chd_337.dat'
END period  338

BEGIN period  339
    OPEN/CLOSE  './external/chd_338.dat'
END period  339

BEGIN period  340
    OPEN/CLOSE  './external/chd_339.dat'
END period  340

BEGIN period  341
    OPEN/CLOSE  './external/chd_340.dat'
END period  341

BEGIN period  342
    OPEN/CLOSE  './external/chd_341.dat'
END period  342

BEGIN period  343
    OPEN/CLOSE  './external/chd_342.dat'
END period  343

BEGIN period  344
    OPEN/CLOSE  './external/chd_343.dat'
END period  344

BEGIN period  345
    OPEN/CLOSE  './external/chd_344.dat'
END period  345

BEGIN period  346
    OPEN/CLOSE  './external/chd_345.dat'
END period  346

BEGIN period  347
    OPEN/CLOSE  './external/chd_346.dat'
END period  347

BEGIN period  348
    OPEN/CLOSE  './external/chd_347.dat'
END period  348

BEGIN period  349
    OPEN/CLOSE  './external/chd_348.dat'
END period  349

BEGIN period  350
    OPEN/CLOSE  './external/chd_349.dat'
END period  350

BEGIN period  351
    OPEN/CLOSE  './external/chd_350.dat'
END period  351

BEGIN period  352
    OPEN/CLOSE  './external/chd_351.dat'
END period  352

BEGIN period  353
    OPEN/CLOSE  './external/chd_352.dat'
END period  353

BEGIN period  354
    OPEN/CLOSE  './external/chd_353.dat'
END period  354

BEGIN period  355
    OPEN/CLOSE  './external/chd_354.dat'
END period  355

BEGIN period  356
    OPEN/CLOSE  './external/chd_355.dat'
END period  356

BEGIN period  357
    OPEN/CLOSE  './external/chd_356.dat'
END period  357

BEGIN period  358
    OPEN/CLOSE  './external/chd_357.dat'
END period  358

BEGIN period  359
    OPEN/CLOSE  './external/chd_358.dat'
END period  359

BEGIN period  360
    OPEN/CLOSE  './external/chd_359.dat'
END period  360

BEGIN period  361
    OPEN/CLOSE  './external/chd_360.dat'
END period  361

BEGIN period  362
    OPEN/CLOSE  './external/chd_361.dat'
END period  362

BEGIN period  363
    OPEN/CLOSE  './external/chd_362.dat'
END period  363

BEGIN period  364
    OPEN/CLOSE  './external/chd_363.dat'
END period  364

BEGIN period  365
    OPEN/CLOSE  './external/chd_364.dat'
END period  365

BEGIN period  366
    OPEN/CLOSE  './external/chd_365.dat'
END period  366

