# File generated by Flopy version 3.9.1 on 09/22/2025 at 10:13:52.
BEGIN options
  auxiliary  salinity
  OBS6  FILEIN  gwf.drn.obs
END options

BEGIN dimensions
  MAXBOUND  35
END dimensions

BEGIN period  1
    OPEN/CLOSE  'external/drn.dat'
END period  1

