# File generated by Flopy version 3.9.1 on 09/22/2025 at 10:13:52.
BEGIN options
END options

BEGIN continuous  FILEOUT  outputs/drn_obs.csv
  MillCreek0  DRN  1 70 62
  MillCreek1  DRN  1 70 61
  MillCreek2  DRN  1 71 60
  MillCreek3  DRN  1 72 59
  MillCreek4  DRN  1 72 58
  MillCreek5  DRN  1 73 57
  MillCreek6  DRN  1 74 56
  MillCreek7  DRN  1 74 55
END continuous  FILEOUT  outputs/drn_obs.csv

