# gwf model version 0+unknown
# File generated by Flopy version 3.9.1 on 07/21/2025 at 12:27:49.
# via modflow-setup version 0.6.0 at 2025-07-21 12:27:50
BEGIN options
END options

BEGIN continuous  FILEOUT  gwf.chd.obs.output.csv
  perimeter-head  chd  perimeter-head
  perimeter-heads  chd  perimeter-heads
END continuous  FILEOUT  gwf.chd.obs.output.csv

