# File generated by Flopy version 3.9.1 on 09/22/2025 at 10:13:15.
BEGIN options
  LIST  gwf.list
  PRINT_INPUT
  SAVE_FLOWS
  NEWTON  UNDER_RELAXATION
END options

BEGIN packages
  GHB6  gwf.ghb  ghb
  DRN6  gwf.drn  drn
  CHD6  gwf_0.chd  chd_coast
  CHD6  gwf.chd  chd_perimeter
  dis6  gwf.dis  dis
  ic6  gwf.ic  ic
  npf6  gwf.npf  npf
  sto6  gwf.sto  sto
  rch6  gwf.rcha  rcha_0
  wel6  gwf.wel  wel_0
  OC6  gwf.oc  oc
  OBS6  gwf.obs  hd_obs
  BUY6  gwf.buy  buy
END packages

