# File generated by Flopy version 3.9.1 on 09/22/2025 at 10:13:52.
BEGIN options
END options

BEGIN continuous  FILEOUT  outputs/GHB_obs.csv
  GHB0  GHB  1 18 27
  GHB1  GHB  1 19 27
  GHB2  GHB  1 20 27
  GHB3  GHB  1 20 26
  GHB4  GHB  1 20 25
  GHB5  GHB  1 21 27
  GHB6  GHB  1 21 26
  GHB7  GHB  1 21 25
  GHB8  GHB  1 21 24
  GHB9  GHB  1 22 27
  GHB10  GHB  1 22 26
  GHB11  GHB  1 22 25
  GHB12  GHB  1 22 24
  GHB13  GHB  1 22 23
  GHB14  GHB  1 23 27
  GHB15  GHB  1 23 26
  GHB16  GHB  1 23 25
  GHB17  GHB  1 23 24
  GHB18  GHB  1 23 23
  GHB19  GHB  1 24 26
  GHB20  GHB  1 24 25
  GHB21  GHB  1 24 24
  GHB22  GHB  1 24 23
  GHB23  GHB  1 24 22
  GHB24  GHB  1 25 24
  GHB25  GHB  1 25 23
  GHB26  GHB  1 25 22
  GHB27  GHB  1 25 21
  GHB28  GHB  1 26 23
  GHB29  GHB  1 26 22
  GHB30  GHB  1 26 21
  GHB31  GHB  1 26 20
  GHB32  GHB  1 27 23
  GHB33  GHB  1 27 22
  GHB34  GHB  1 27 21
  GHB35  GHB  1 27 20
  GHB36  GHB  1 27 19
  GHB37  GHB  1 27 18
  GHB38  GHB  1 28 23
  GHB39  GHB  1 28 22
  GHB40  GHB  1 28 20
  GHB41  GHB  1 28 19
  GHB42  GHB  1 28 18
  GHB43  GHB  1 28 17
  GHB44  GHB  1 28 16
  GHB45  GHB  1 28 15
  GHB46  GHB  1 28 14
  GHB47  GHB  1 29 18
  GHB48  GHB  1 29 17
  GHB49  GHB  1 29 16
  GHB50  GHB  1 29 15
  GHB51  GHB  1 29 14
  GHB52  GHB  1 29 13
  GHB53  GHB  1 29 12
  GHB54  GHB  1 30 18
  GHB55  GHB  1 30 17
  GHB56  GHB  1 30 16
  GHB57  GHB  1 30 15
  GHB58  GHB  1 30 14
  GHB59  GHB  1 30 13
  GHB60  GHB  1 30 12
  GHB61  GHB  1 30 11
  GHB62  GHB  1 31 18
  GHB63  GHB  1 31 17
  GHB64  GHB  1 31 16
  GHB65  GHB  1 31 15
  GHB66  GHB  1 31 14
  GHB67  GHB  1 31 13
  GHB68  GHB  1 31 12
  GHB69  GHB  1 31 11
  GHB70  GHB  1 31 10
  GHB71  GHB  1 31 9
  GHB72  GHB  1 31 8
  GHB73  GHB  1 32 18
  GHB74  GHB  1 32 17
  GHB75  GHB  1 32 16
  GHB76  GHB  1 32 15
  GHB77  GHB  1 32 14
  GHB78  GHB  1 32 13
  GHB79  GHB  1 32 12
  GHB80  GHB  1 32 11
  GHB81  GHB  1 32 10
  GHB82  GHB  1 32 9
  GHB83  GHB  1 32 8
  GHB84  GHB  1 32 7
  GHB85  GHB  1 33 18
  GHB86  GHB  1 33 17
  GHB87  GHB  1 33 16
  GHB88  GHB  1 33 15
  GHB89  GHB  1 33 14
  GHB90  GHB  1 33 13
  GHB91  GHB  1 33 12
  GHB92  GHB  1 33 11
  GHB93  GHB  1 33 10
  GHB94  GHB  1 33 9
  GHB95  GHB  1 33 8
  GHB96  GHB  1 33 7
  GHB97  GHB  1 34 18
  GHB98  GHB  1 34 17
  GHB99  GHB  1 34 16
  GHB100  GHB  1 34 15
  GHB101  GHB  1 34 14
  GHB102  GHB  1 34 13
  GHB103  GHB  1 34 12
  GHB104  GHB  1 34 11
  GHB105  GHB  1 34 10
  GHB106  GHB  1 34 9
  GHB107  GHB  1 34 8
  GHB108  GHB  1 34 7
  GHB109  GHB  1 35 18
  GHB110  GHB  1 35 17
  GHB111  GHB  1 35 16
  GHB112  GHB  1 35 15
  GHB113  GHB  1 35 14
  GHB114  GHB  1 35 13
  GHB115  GHB  1 35 12
  GHB116  GHB  1 35 11
  GHB117  GHB  1 35 10
  GHB118  GHB  1 35 9
  GHB119  GHB  1 35 8
  GHB120  GHB  1 35 7
  GHB121  GHB  1 36 18
  GHB122  GHB  1 36 17
  GHB123  GHB  1 36 16
  GHB124  GHB  1 36 15
  GHB125  GHB  1 36 14
  GHB126  GHB  1 36 13
  GHB127  GHB  1 36 12
  GHB128  GHB  1 36 11
  GHB129  GHB  1 36 10
  GHB130  GHB  1 36 9
  GHB131  GHB  1 36 8
  GHB132  GHB  1 36 7
  GHB133  GHB  1 37 18
  GHB134  GHB  1 37 17
  GHB135  GHB  1 37 16
  GHB136  GHB  1 37 15
  GHB137  GHB  1 37 14
  GHB138  GHB  1 37 13
  GHB139  GHB  1 37 12
  GHB140  GHB  1 37 11
  GHB141  GHB  1 37 10
  GHB142  GHB  1 37 9
  GHB143  GHB  1 37 8
  GHB144  GHB  1 37 7
  GHB145  GHB  1 38 18
  GHB146  GHB  1 38 17
  GHB147  GHB  1 38 16
  GHB148  GHB  1 38 15
  GHB149  GHB  1 38 14
  GHB150  GHB  1 38 13
  GHB151  GHB  1 38 12
  GHB152  GHB  1 38 11
  GHB153  GHB  1 38 10
  GHB154  GHB  1 38 9
  GHB155  GHB  1 38 8
  GHB156  GHB  1 38 7
  GHB157  GHB  1 39 18
  GHB158  GHB  1 39 17
  GHB159  GHB  1 39 16
  GHB160  GHB  1 39 15
  GHB161  GHB  1 39 14
  GHB162  GHB  1 39 13
  GHB163  GHB  1 39 12
  GHB164  GHB  1 39 11
  GHB165  GHB  1 39 10
  GHB166  GHB  1 39 9
  GHB167  GHB  1 39 8
  GHB168  GHB  1 39 7
  GHB169  GHB  1 40 18
  GHB170  GHB  1 40 17
  GHB171  GHB  1 40 16
  GHB172  GHB  1 40 15
  GHB173  GHB  1 40 14
  GHB174  GHB  1 40 13
  GHB175  GHB  1 40 12
  GHB176  GHB  1 40 11
  GHB177  GHB  1 40 10
  GHB178  GHB  1 40 9
  GHB179  GHB  1 40 8
  GHB180  GHB  1 40 7
  GHB181  GHB  1 41 17
  GHB182  GHB  1 41 16
  GHB183  GHB  1 41 15
  GHB184  GHB  1 41 14
  GHB185  GHB  1 41 13
  GHB186  GHB  1 41 12
  GHB187  GHB  1 41 11
  GHB188  GHB  1 41 10
  GHB189  GHB  1 41 8
  GHB190  GHB  1 41 7
  GHB191  GHB  1 42 37
  GHB192  GHB  1 42 16
  GHB193  GHB  1 42 15
  GHB194  GHB  1 42 14
  GHB195  GHB  1 42 13
  GHB196  GHB  1 42 12
  GHB197  GHB  1 42 11
  GHB198  GHB  1 43 37
  GHB199  GHB  1 43 36
  GHB200  GHB  1 43 15
  GHB201  GHB  1 43 14
  GHB202  GHB  1 43 13
  GHB203  GHB  1 44 37
  GHB204  GHB  1 44 36
  GHB205  GHB  1 44 35
  GHB206  GHB  1 44 34
  GHB207  GHB  1 44 22
  GHB208  GHB  1 44 21
  GHB209  GHB  1 44 20
  GHB210  GHB  1 44 14
  GHB211  GHB  1 44 13
  GHB212  GHB  1 45 37
  GHB213  GHB  1 45 36
  GHB214  GHB  1 45 35
  GHB215  GHB  1 45 34
  GHB216  GHB  1 45 33
  GHB217  GHB  1 45 23
  GHB218  GHB  1 45 22
  GHB219  GHB  1 45 21
  GHB220  GHB  1 45 20
  GHB221  GHB  1 45 13
  GHB222  GHB  1 46 36
  GHB223  GHB  1 46 35
  GHB224  GHB  1 46 34
  GHB225  GHB  1 46 23
  GHB226  GHB  1 46 22
  GHB227  GHB  1 46 21
  GHB228  GHB  1 46 20
  GHB229  GHB  1 46 13
  GHB230  GHB  1 47 36
  GHB231  GHB  1 47 35
  GHB232  GHB  1 47 34
  GHB233  GHB  1 47 24
  GHB234  GHB  1 47 23
  GHB235  GHB  1 47 22
  GHB236  GHB  1 47 21
  GHB237  GHB  1 47 20
  GHB238  GHB  1 47 19
  GHB239  GHB  1 47 13
  GHB240  GHB  1 48 36
  GHB241  GHB  1 48 35
  GHB242  GHB  1 48 34
  GHB243  GHB  1 48 24
  GHB244  GHB  1 48 23
  GHB245  GHB  1 48 22
  GHB246  GHB  1 48 21
  GHB247  GHB  1 48 20
  GHB248  GHB  1 48 19
  GHB249  GHB  1 48 13
  GHB250  GHB  1 49 36
  GHB251  GHB  1 49 35
  GHB252  GHB  1 49 34
  GHB253  GHB  1 49 33
  GHB254  GHB  1 49 25
  GHB255  GHB  1 49 24
  GHB256  GHB  1 49 23
  GHB257  GHB  1 49 22
  GHB258  GHB  1 49 21
  GHB259  GHB  1 49 20
  GHB260  GHB  1 49 19
  GHB261  GHB  1 49 13
  GHB262  GHB  1 50 36
  GHB263  GHB  1 50 35
  GHB264  GHB  1 50 34
  GHB265  GHB  1 50 33
  GHB266  GHB  1 50 24
  GHB267  GHB  1 50 23
  GHB268  GHB  1 50 22
  GHB269  GHB  1 50 21
  GHB270  GHB  1 50 20
  GHB271  GHB  1 50 19
  GHB272  GHB  1 50 13
  GHB273  GHB  1 51 36
  GHB274  GHB  1 51 35
  GHB275  GHB  1 51 34
  GHB276  GHB  1 51 33
  GHB277  GHB  1 51 32
  GHB278  GHB  1 51 31
  GHB279  GHB  1 51 24
  GHB280  GHB  1 51 23
  GHB281  GHB  1 51 22
  GHB282  GHB  1 51 21
  GHB283  GHB  1 51 20
  GHB284  GHB  1 52 36
  GHB285  GHB  1 52 35
  GHB286  GHB  1 52 34
  GHB287  GHB  1 52 33
  GHB288  GHB  1 52 32
  GHB289  GHB  1 52 31
  GHB290  GHB  1 52 30
  GHB291  GHB  1 52 29
  GHB292  GHB  1 52 28
  GHB293  GHB  1 52 27
  GHB294  GHB  1 52 26
  GHB295  GHB  1 52 25
  GHB296  GHB  1 52 24
  GHB297  GHB  1 52 23
  GHB298  GHB  1 52 22
  GHB299  GHB  1 52 21
  GHB300  GHB  1 53 37
  GHB301  GHB  1 53 36
  GHB302  GHB  1 53 35
  GHB303  GHB  1 53 34
  GHB304  GHB  1 53 33
  GHB305  GHB  1 53 32
  GHB306  GHB  1 53 31
  GHB307  GHB  1 53 30
  GHB308  GHB  1 53 29
  GHB309  GHB  1 53 28
  GHB310  GHB  1 53 27
  GHB311  GHB  1 53 26
  GHB312  GHB  1 53 25
  GHB313  GHB  1 53 24
  GHB314  GHB  1 54 37
  GHB315  GHB  1 54 36
  GHB316  GHB  1 54 35
  GHB317  GHB  1 54 34
  GHB318  GHB  1 54 33
  GHB319  GHB  1 54 32
  GHB320  GHB  1 54 31
  GHB321  GHB  1 54 30
  GHB322  GHB  1 54 29
  GHB323  GHB  1 54 28
  GHB324  GHB  1 54 27
  GHB325  GHB  1 54 26
  GHB326  GHB  1 54 25
  GHB327  GHB  1 55 38
  GHB328  GHB  1 55 37
  GHB329  GHB  1 55 31
  GHB330  GHB  1 55 30
  GHB331  GHB  1 55 29
  GHB332  GHB  1 55 28
  GHB333  GHB  1 55 27
  GHB334  GHB  1 55 26
  GHB335  GHB  1 55 25
  GHB336  GHB  1 56 30
  GHB337  GHB  1 56 29
  GHB338  GHB  1 56 28
  GHB339  GHB  1 56 27
  GHB340  GHB  1 56 26
  GHB341  GHB  1 56 25
  GHB342  GHB  1 57 28
  GHB343  GHB  1 57 27
  GHB344  GHB  1 57 26
  GHB345  GHB  1 57 25
  GHB346  GHB  1 58 28
  GHB347  GHB  1 58 27
  GHB348  GHB  1 58 26
  GHB349  GHB  1 59 28
  GHB350  GHB  1 59 27
  GHB351  GHB  1 60 28
  GHB352  GHB  1 60 27
  GHB353  GHB  1 61 28
END continuous  FILEOUT  outputs/GHB_obs.csv

