# File generated by Flopy version 3.9.1 on 09/22/2025 at 10:13:15.
BEGIN options
  PRINT_OPTION  summary
  COMPLEXITY  moderate
END options

