# File generated by Flopy version 3.9.1 on 09/22/2025 at 10:13:51.
BEGIN options
  auxiliary  salinity
  BOUNDNAMES
  SAVE_FLOWS
  OBS6  FILEIN  gwf_0.chd.obs
END options

BEGIN dimensions
  MAXBOUND  1461
END dimensions

BEGIN period  1
    OPEN/CLOSE  './external/chd_coastal.dat'
END period  1

