# File generated by Flopy version 3.9.1 on 09/22/2025 at 10:13:52.
BEGIN options
  SCHEME  upstream
END options

