[TITLE]
;;Project Title/Notes

[OPTIONS]
;;Option             Value
FLOW_UNITS           CMS
INFILTRATION         HORTON
FLOW_ROUTING         KINWAVE
LINK_OFFSETS         DEPTH
MIN_SLOPE            0
ALLOW_PONDING        NO
SKIP_STEADY_STATE    NO

START_DATE           01/01/2010
START_TIME           00:00:00
REPORT_START_DATE    01/01/2010
REPORT_START_TIME    00:00:00
END_DATE             12/31/2010
END_TIME             12:00:00
SWEEP_START          01/01
SWEEP_END            12/31
DRY_DAYS             10
REPORT_STEP          00:15:00
WET_STEP             00:05:00
DRY_STEP             01:00:00
ROUTING_STEP         0:01:00 
RULE_STEP            00:00:00

INERTIAL_DAMPING     PARTIAL
NORMAL_FLOW_LIMITED  BOTH
FORCE_MAIN_EQUATION  H-W
VARIABLE_STEP        0.75
LENGTHENING_STEP     0
MIN_SURFAREA         1.167
MAX_TRIALS           8
HEAD_TOLERANCE       0.0015
SYS_FLOW_TOL         5
LAT_FLOW_TOL         5
MINIMUM_STEP         0.5
THREADS              1

[EVAPORATION]
;;Data Source    Parameters
;;-------------- ----------------
CONSTANT         0.0
DRY_ONLY         NO

[RAINGAGES]
;;Name           Format    Interval SCF      Source    
;;-------------- --------- ------ ------ ----------
Gage1            VOLUME    24:00    1.0      TIMESERIES Precip2010      

[SUBCATCHMENTS]
;;Name           Rain Gage        Outlet           Area     %Imperv  Width    %Slope   CurbLen  SnowPack        
;;-------------- ---------------- ---------------- -------- -------- -------- -------- -------- ----------------
S1               Gage1            300              6.24     25       139.72   4.99     0                        
S2               Gage1            186              2.53     25       77.79    5.27     0                        
S3               Gage1            189              1.32     25       49.28    6.98     0                        
S4               Gage1            175              9.22     25       128.42   8.14     0                        
S5               Gage1            188              2.79     25       84.49    5.56     0                        
S6               Gage1            019              1.99     25       72.62    4.87     0                        
S7               Gage1            017              0.64     25       24.54    5.99     0                        
S8               Gage1            021              1.09     25       36.92    6.89     0                        
S9               Gage1            191              2.87     25       111.26   6.50     0                        
S10              Gage1            142              2.80     25       109.94   11.17    0                        
S11              Gage1            136              1.23     25       45.01    4.56     0                        
S12              Gage1            157              1.12     25       67.93    3.27     0                        
S13              Gage1            148              0.84     25       67.57    4.66     0                        
S13A             Gage1            143              0.64     25       37.27    7.29     0                        
S14              Gage1            162              1.96     25       191.16   3.73     0                        
S15              Gage1            161              4.23     25       409.7    7.79     0                        
S15A             Gage1            164              1.66     25       170.14   2.93     0                        
S15B             Gage1            169              0.56     25       116.3    10.54    0                        
S16              Gage1            023              5.06     25       70.17    7.86     0                        
S17              Gage1            025              2.99     25       48.93    8.15     0                        
S18              Gage1            012              1.73     25       29.02    4.00     0                        
S19              Gage1            014              4.15     25       70.82    6.07     0                        
S20              Gage1            195              1.74     25       24.99    4.39     0                        
S21              Gage1            035A             2.89     25       42.11    5.56     0                        
S22              Gage1            071              3.62     25       57.55    6.68     0                        
S23              Gage1            106              1.62     25       37.65    6.78     0                        
S24              Gage1            079A             0.65     25       13.94    11.31    0                        
S25              Gage1            105              0.48     25       10.24    6.25     0                        
S26              Gage1            076              0.61     25       12.47    9.42     0                        
S27              Gage1            074              3.83     25       76.06    5.73     0                        
S28              Gage1            075              1.33     25       20.28    5.95     0                        
S29              Gage1            009              2.11     25       42.11    2.69     0                        
S30              Gage1            133              1.98     25       39.38    3.05     0                        
S31              Gage1            131              1.05     25       77.39    1.46     0                        
S31A             Gage1            126              0.87     25       20.37    3.50     0                        
S32              Gage1            0129             2.19     25       50.66    5.39     0                        
S33              Gage1            123              1.86     25       44.43    2.43     0                        
S34              Gage1            171              1.13     25       99.87    3.61     0                        
S34A             Gage1            172              1.43     25       40.41    6.94     0                        
S35              Gage1            117              3.00     25       84.03    10.52    0                        
S36              Gage1            121              3.18     25       87.23    7.15     0                        
S37              Gage1            207              1.17     25       29.86    6.33     0                        
S38              Gage1            110              2.55     25       73.07    7.75     0                        
S39              Gage1            104              2.50     25       58.16    5.31     0                        
S40              Gage1            083              1.78     25       37.68    4.26     0                        
S41              Gage1            088              4.01     25       126.21   7.11     0                        
S42              Gage1            065              2.74     25       76.92    6.13     0                        
S43              Gage1            041              2.50     25       61.79    4.29     0                        
S44              Gage1            042              1.38     25       31.36    2.07     0                        
S44A             Gage1            039              1.35     25       30.10    3.23     0                        
S45              Gage1            072              1.47     25       21.39    2.82     0                        
S46              Gage1            037              1.22     25       27.66    4.38     0                        
S47              Gage1            196              1.11     25       16.21    7.08     0                        
S48              Gage1            081              3.74     25       54.36    3.73     0                        
S49              Gage1            306              9.96     25       241.45   3.55     0                        
S50              Gage1            051              6.77     25       326.69   9.38     0                        
S51              Gage1            193              3.59     25       360.23   8.74     0                        
S52              Gage1            056              2.04     25       135.31   2.87     0                        
S53              Gage1            212              2.53     25       214.45   11.18    0                        
S54              Gage1            060              1.94     25       136.05   9.83     0                        
S55              Gage1            058              1.85     25       96.03    1.95     0                        
S56              Gage1            061              1.51     25       67.53    2.22     0                        
S57              Gage1            063              1.99     25       104.27   8.33     0                        
S58              Gage1            092              0.84     25       51.47    23.63    0                        
S59              Gage1            043              1.46     25       55.48    3.29     0                        
S60              Gage1            064              1.65     25       61.92    5.83     0                        
S61              Gage1            090              1.54     25       63.25    16.32    0                        
S62              Gage1            323              33.71    25       255.90   13.08    0                        
S63              Gage1            324              6.90     25       67.19    5.72     0                        

[SUBAREAS]
;;Subcatchment   N-Imperv   N-Perv     S-Imperv   S-Perv     PctZero    RouteTo    PctRouted 
;;-------------- ---------- ---------- ---------- ---------- ---------- ---------- ----------
S1               0.01       0.1        1.27       2.54       25         OUTLET    
S2               0.01       0.1        1.27       2.54       25         OUTLET    
S3               0.01       0.1        1.27       2.54       25         OUTLET    
S4               0.01       0.1        1.27       2.54       25         OUTLET    
S5               0.01       0.1        1.27       2.54       25         OUTLET    
S6               0.01       0.1        1.27       2.54       25         OUTLET    
S7               0.01       0.1        1.27       2.54       25         OUTLET    
S8               0.01       0.1        1.27       2.54       25         OUTLET    
S9               0.01       0.1        1.27       2.54       25         OUTLET    
S10              0.01       0.1        1.27       2.54       25         OUTLET    
S11              0.01       0.1        1.27       2.54       25         OUTLET    
S12              0.01       0.1        1.27       2.54       25         OUTLET    
S13              0.01       0.1        1.27       2.54       25         OUTLET    
S13A             0.01       0.1        1.27       2.54       25         OUTLET    
S14              0.01       0.1        1.27       2.54       25         OUTLET    
S15              0.01       0.1        1.27       2.54       25         OUTLET    
S15A             0.01       0.1        1.27       2.54       25         OUTLET    
S15B             0.01       0.1        1.27       2.54       25         OUTLET    
S16              0.01       0.1        1.27       2.54       25         OUTLET    
S17              0.01       0.1        1.27       2.54       25         OUTLET    
S18              0.01       0.1        1.27       2.54       25         OUTLET    
S19              0.01       0.1        1.27       2.54       25         OUTLET    
S20              0.01       0.1        1.27       2.54       25         OUTLET    
S21              0.01       0.1        1.27       2.54       25         OUTLET    
S22              0.01       0.1        1.27       2.54       25         OUTLET    
S23              0.01       0.1        1.27       2.54       25         OUTLET    
S24              0.01       0.1        1.27       2.54       25         OUTLET    
S25              0.01       0.1        1.27       2.54       25         OUTLET    
S26              0.01       0.1        1.27       2.54       25         OUTLET    
S27              0.01       0.1        1.27       2.54       25         OUTLET    
S28              0.01       0.1        1.27       2.54       25         OUTLET    
S29              0.01       0.1        1.27       2.54       25         OUTLET    
S30              0.01       0.1        1.27       2.54       25         OUTLET    
S31              0.01       0.1        1.27       2.54       25         OUTLET    
S31A             0.01       0.1        1.27       2.54       25         OUTLET    
S32              0.01       0.1        1.27       2.54       25         OUTLET    
S33              0.01       0.1        1.27       2.54       25         OUTLET    
S34              0.01       0.1        1.27       2.54       25         OUTLET    
S34A             0.01       0.1        1.27       2.54       25         OUTLET    
S35              0.01       0.1        1.27       2.54       25         OUTLET    
S36              0.01       0.1        1.27       2.54       25         OUTLET    
S37              0.01       0.1        1.27       2.54       25         OUTLET    
S38              0.01       0.1        1.27       2.54       25         OUTLET    
S39              0.01       0.1        1.27       2.54       25         OUTLET    
S40              0.01       0.1        1.27       2.54       25         OUTLET    
S41              0.01       0.1        1.27       2.54       25         OUTLET    
S42              0.01       0.1        1.27       2.54       25         OUTLET    
S43              0.01       0.1        1.27       2.54       25         OUTLET    
S44              0.01       0.1        1.27       2.54       25         OUTLET    
S44A             0.01       0.1        1.27       2.54       25         OUTLET    
S45              0.01       0.1        1.27       2.54       25         OUTLET    
S46              0.01       0.1        1.27       2.54       25         OUTLET    
S47              0.01       0.1        1.27       2.54       25         OUTLET    
S48              0.01       0.1        1.27       2.54       25         OUTLET    
S49              0.01       0.1        1.27       2.54       25         OUTLET    
S50              0.01       0.1        1.27       2.54       25         OUTLET    
S51              0.01       0.1        1.27       2.54       25         OUTLET    
S52              0.01       0.1        1.27       2.54       25         OUTLET    
S53              0.01       0.1        1.27       2.54       25         OUTLET    
S54              0.01       0.1        1.27       2.54       25         OUTLET    
S55              0.01       0.1        1.27       2.54       25         OUTLET    
S56              0.01       0.1        1.27       2.54       25         OUTLET    
S57              0.01       0.1        1.27       2.54       25         OUTLET    
S58              0.01       0.1        1.27       2.54       25         OUTLET    
S59              0.01       0.1        1.27       2.54       25         OUTLET    
S60              0.01       0.1        1.27       2.54       25         OUTLET    
S61              0.01       0.1        1.27       2.54       25         OUTLET    
S62              0.01       0.1        1.27       2.54       25         OUTLET    
S63              0.01       0.1        1.27       2.54       25         OUTLET    

[INFILTRATION]
;;Subcatchment   Param1     Param2     Param3     Param4     Param5    
;;-------------- ---------- ---------- ---------- ---------- ----------
S1               3          0.5        4          7          0         
S2               3          0.5        4          7          0         
S3               3          0.5        4          7          0         
S4               3          0.5        4          7          0         
S5               3          0.5        4          7          0         
S6               3          0.5        4          7          0         
S7               3          0.5        4          7          0         
S8               3          0.5        4          7          0         
S9               3          0.5        4          7          0         
S10              3          0.5        4          7          0         
S11              3          0.5        4          7          0         
S12              3          0.5        4          7          0         
S13              3          0.5        4          7          0         
S13A             3          0.5        4          7          0         
S14              3          0.5        4          7          0         
S15              3          0.5        4          7          0         
S15A             3          0.5        4          7          0         
S15B             3          0.5        4          7          0         
S16              3          0.5        4          7          0         
S17              3          0.5        4          7          0         
S18              3          0.5        4          7          0         
S19              3          0.5        4          7          0         
S20              3          0.5        4          7          0         
S21              3          0.5        4          7          0         
S22              3          0.5        4          7          0         
S23              3          0.5        4          7          0         
S24              3          0.5        4          7          0         
S25              3          0.5        4          7          0         
S26              3          0.5        4          7          0         
S27              3          0.5        4          7          0         
S28              3          0.5        4          7          0         
S29              3          0.5        4          7          0         
S30              3          0.5        4          7          0         
S31              3          0.5        4          7          0         
S31A             3          0.5        4          7          0         
S32              3          0.5        4          7          0         
S33              3          0.5        4          7          0         
S34              3          0.5        4          7          0         
S34A             3          0.5        4          7          0         
S35              3          0.5        4          7          0         
S36              3          0.5        4          7          0         
S37              3          0.5        4          7          0         
S38              3          0.5        4          7          0         
S39              3          0.5        4          7          0         
S40              3          0.5        4          7          0         
S41              3          0.5        4          7          0         
S42              3          0.5        4          7          0         
S43              3          0.5        4          7          0         
S44              3          0.5        4          7          0         
S44A             3          0.5        4          7          0         
S45              3          0.5        4          7          0         
S46              3          0.5        4          7          0         
S47              3          0.5        4          7          0         
S48              3          0.5        4          7          0         
S49              3          0.5        4          7          0         
S50              3          0.5        4          7          0         
S51              3          0.5        4          7          0         
S52              3          0.5        4          7          0         
S53              3          0.5        4          7          0         
S54              3          0.5        4          7          0         
S55              3          0.5        4          7          0         
S56              3          0.5        4          7          0         
S57              3          0.5        4          7          0         
S58              3          0.5        4          7          0         
S59              3          0.5        4          7          0         
S60              3          0.5        4          7          0         
S61              3          0.5        4          7          0         
S62              3          0.5        4          7          0         
S63              3          0.5        4          7          0         

[JUNCTIONS]
;;Name           Elevation  MaxDepth   InitDepth  SurDepth   Aponded   
;;-------------- ---------- ---------- ---------- ---------- ----------
001              1.52       1.1        0          0          0         
002              1.45       1.5        0          0          0         
003              1.32       1.4        0          0          0         
004              1.22       1.5        0          0          0         
005              1.18       1.6        0          0          0         
006              0.38       2.4        0          0          0         
007              0.58       2.2        0          0          0         
008              1.58       1.2        0          0          0         
009              1.78       1          0          0          0         
010              1.03       1.75       0          0          0         
011              1.56       2          0          0          0         
012              2.06       1.5        0          0          0         
013              1.31       2.8        0          0          0         
014              2.06       1.5        0          0          0         
015              1.36       3          0          0          0         
016              2.36       2          0          0          0         
017              2.27       1.5        0          0          0         
018              2.46       1.9        0          0          0         
019              3.40       1.5        0          0          0         
020              1.59       1.5        0          0          0         
021              3.40       1.5        0          0          0         
022              2.29       2.6        0          0          0         
023              2.40       1          0          0          0         
024              1.36       3          0          0          0         
025              1.55       1          0          0          0         
026              1.16       3.2        0          0          0         
027              1.06       2.5        0          0          0         
028              0.96       2.6        0          0          0         
029              0.72       2          0          0          0         
030              0.88       1.5        0          0          0         
030A             0.98       1.4        0          0          0         
031              1.18       1.2        0          0          0         
032              1.19       2.31       0          0          0         
033              1.2        2.3        0          0          0         
034              1.25       2.25       0          0          0         
034A             1.3        2.2        0          0          0         
035              1.31       2.5        0          0          0         
035A             2.01       1.5        0          0          0         
036              1.57       2.6        0          0          0         
037              2.67       1.5        0          0          0         
038              2.19       2          0          0          0         
039              2.99       1.2        0          0          0         
040              2.37       1.8        0          0          0         
041              2.67       1.5        0          0          0         
042              3.17       1          0          0          0         
043              2.67       1.5        0          0          0         
044              1.76       2.2        0          0          0         
045              1.16       2.8        0          0          0         
046              1.07       2.4        0          0          0         
047              0.72       2.6        0          0          0         
048              0.24       2          0          0          0         
049              0.04       2.2        0          0          0         
050              0.15       2.1        0          0          0         
050A             0.14       2.1        0          0          0         
051              1.25       1          0          0          0         
052              0.4        0.6        0          0          0         
053              0.62       0.5        0          0          0         
054              0.72       0.4        0          0          0         
055              1.32       1.3        0          0          0         
056              1.62       1          0          0          0         
057              1.22       1.4        0          0          0         
058              1.97       1.5        0          0          0         
059              1.47       2          0          0          0         
060              1.97       1.5        0          0          0         
061              2.46       1.5        0          0          0         
062              1.96       2          0          0          0         
063              2.05       1.5        0          0          0         
064              2.05       1.5        0          0          0         
065              2.09       1.5        0          0          0         
066              1.39       2.2        0          0          0         
067              0.64       3          0          0          0         
068              0.84       2.8        0          0          0         
069              0.91       2.9        0          0          0         
070              1.01       2.8        0          0          0         
071              2.00       1.5        0          0          0         
072              2.50       1          0          0          0         
073              1.13       2.4        0          0          0         
074              1.72       1          0          0          0         
075              1.72       1          0          0          0         
076              2.03       1.5        0          0          0         
077              1.33       2.2        0          0          0         
078              1.53       2          0          0          0         
079              1.73       1.8        0          0          0         
079A             2.03       1.5        0          0          0         
080              2.03       1.5        0          0          0         
081              2.32       1.5        0          0          0         
082              1.92       1.9        0          0          0         
083              2.32       1.5        0          0          0         
084              1.32       2.5        0          0          0         
085              0.63       2.55       0          0          0         
086              0.24       1.1        0          0          0         
087              0.53       1.9        0          0          0         
088              1.98       1.2        0          0          0         
089              1.22       1.4        0          0          0         
090              2.05       1.5        0          0          0         
090A             1.75       1.8        0          0          0         
091              1.45       2.1        0          0          0         
092              1.52       0.3        0          0          0         
093              1.4        1.4        0          0          0         
094              1.30       0.3        0          0          0         
095              1.4        0.3        0          0          0         
096              1.02       1.6        0          0          0         
097              0.93       1.5        0          0          0         
098              0.73       1.7        0          0          0         
099              0.53       1.9        0          0          0         
100              0.43       2          0          0          0         
101              0.58       2.6        0          0          0         
102              1.23       1.2        0          0          0         
103              1.46       1.7        0          0          0         
104              1.66       1.5        0          0          0         
105              1.66       1.5        0          0          0         
106              1.96       1.2        0          0          0         
107              1.62       1          0          0          0         
108              1.32       1.3        0          0          0         
109              0.74       0.6        0          0          0         
110              1.04       0.3        0          0          0         
111              0.44       0.9        0          0          0         
112              0.52       1.91       0          0          0         
113              0.34       1          0          0          0         
114              0.19       1.15       0          0          0         
115              0.15       1.15       0          0          0         
116              0.15       1.15       0          0          0         
116A             0.20       1.1        0          0          0         
117              0.30       1          0          0          0         
118              0.20       1.1        0          0          0         
119              0.30       1          0          0          0         
120              0.50       0.8        0          0          0         
121              0.80       0.5        0          0          0         
122              1.37       1.5        0          0          0         
123              1.87       1          0          0          0         
124              1.39       1.7        0          0          0         