# File generated by Flopy version 3.9.1 on 07/24/2025 at 10:06:53.
BEGIN options
  auxiliary  salinity
END options

BEGIN dimensions
  MAXBOUND  354
END dimensions

BEGIN period  1
    OPEN/CLOSE  'external/ghb.dat'
END period  1

