# File generated by Flopy version 3.9.1 on 07/24/2025 at 10:05:48.
BEGIN options
END options

BEGIN continuous  FILEOUT  gwf.chd.obs.output.csv
  perimeter-head  chd  perimeter-head
  perimeter-heads  chd  perimeter-heads
END continuous  FILEOUT  gwf.chd.obs.output.csv

