# File generated by Flopy version 3.9.1 on 07/24/2025 at 10:05:47.
BEGIN options
  PRINT_OPTION  summary
  COMPLEXITY  moderate
END options

