# File generated by Flopy version 3.9.1 on 07/24/2025 at 10:05:47.
BEGIN options
  LIST  gwf.list
  PRINT_INPUT
  SAVE_FLOWS
  NEWTON  UNDER_RELAXATION
END options

BEGIN packages
  GHB6  gwf.ghb  ghb
  DRN6  gwf.drn  drn
  CHD6  gwf_0.chd  chd_coast
  wel6  gwf.wel  wel_0
  chd6  gwf.chd  chd_0
  rch6  gwf.rcha  rcha_0
  sto6  gwf.sto  sto
  npf6  gwf.npf  npf
  ic6  gwf.ic  ic
  dis6  gwf.dis  dis
  OC6  gwf.oc  oc
  BUY6  gwf.buy  buy
END packages

