# File generated by Flopy version 3.9.1 on 07/24/2025 at 10:05:47.
BEGIN options
  LENGTH_UNITS  feet
  XORIGIN  2.25090849E+06
  YORIGIN  2.32286359E+05
  ANGROT      18.00000000
END options

BEGIN dimensions
  NLAY  20
  NROW  182
  NCOL  84
END dimensions

BEGIN griddata
  delr
    INTERNAL  FACTOR  1.0
       250.00000000     250.00000000     250.00000000     250.00000000     250.00000000     250.00000000     250.00000000     250.00000000     250.00000000     250.00000000     250.00000000     250.00000000     250.00000000     250.00000000     250.00000000     250.00000000     250.00000000     250.00000000     250.00000000     250.00000000     250.00000000     250.00000000     250.00000000     250.00000000     250.00000000     250.00000000     250.00000000     250.00000000     250.00000000     250.00000000     250.00000000     250.00000000     250.00000000     250.00000000     250.00000000     250.00000000     250.00000000     250.00000000     250.00000000     250.00000000     250.00000000     250.00000000     250.00000000     250.00000000     250.00000000     250.00000000     250.00000000     250.00000000     250.00000000     250.00000000     250.00000000     250.00000000     250.00000000     250.00000000     250.00000000     250.00000000     250.00000000     250.00000000     250.00000000     250.00000000     250.00000000     250.00000000     250.00000000     250.00000000     250.00000000     250.00000000     250.00000000     250.00000000     250.00000000     250.00000000     250.00000000     250.00000000     250.00000000     250.00000000     250.00000000     250.00000000     250.00000000     250.00000000     250.00000000     250.00000000     250.00000000     250.00000000     250.00000000     250.00000000
  delc
    INTERNAL  FACTOR  1.0
       250.00000000     250.00000000     250.00000000     250.00000000     250.00000000     250.00000000     250.00000000     250.00000000     250.00000000     250.00000000     250.00000000     250.00000000     250.00000000     250.00000000     250.00000000     250.00000000     250.00000000     250.00000000     250.00000000     250.00000000     250.00000000     250.00000000     250.00000000     250.00000000     250.00000000     250.00000000     250.00000000     250.00000000     250.00000000     250.00000000     250.00000000     250.00000000     250.00000000     250.00000000     250.00000000     250.00000000     250.00000000     250.00000000     250.00000000     250.00000000     250.00000000     250.00000000     250.00000000     250.00000000     250.00000000     250.00000000     250.00000000     250.00000000     250.00000000     250.00000000     250.00000000     250.00000000     250.00000000     250.00000000     250.00000000     250.00000000     250.00000000     250.00000000     250.00000000     250.00000000     250.00000000     250.00000000     250.00000000     250.00000000     250.00000000     250.00000000     250.00000000     250.00000000     250.00000000     250.00000000     250.00000000     250.00000000     250.00000000     250.00000000     250.00000000     250.00000000     250.00000000     250.00000000     250.00000000     250.00000000     250.00000000     250.00000000     250.00000000     250.00000000
       250.00000000     250.00000000     250.00000000     250.00000000     250.00000000     250.00000000     250.00000000     250.00000000     250.00000000     250.00000000     250.00000000     250.00000000     250.00000000     250.00000000     250.00000000     250.00000000     250.00000000     250.00000000     250.00000000     250.00000000     250.00000000     250.00000000     250.00000000     250.00000000     250.00000000     250.00000000     250.00000000     250.00000000     250.00000000     250.00000000     250.00000000     250.00000000     250.00000000     250.00000000     250.00000000     250.00000000     250.00000000     250.00000000     250.00000000     250.00000000     250.00000000     250.00000000     250.00000000     250.00000000     250.00000000     250.00000000     250.00000000     250.00000000     250.00000000     250.00000000     250.00000000     250.00000000     250.00000000     250.00000000     250.00000000     250.00000000     250.00000000     250.00000000     250.00000000     250.00000000     250.00000000     250.00000000     250.00000000     250.00000000     250.00000000     250.00000000     250.00000000     250.00000000     250.00000000     250.00000000     250.00000000     250.00000000     250.00000000     250.00000000     250.00000000     250.00000000     250.00000000     250.00000000     250.00000000     250.00000000     250.00000000     250.00000000     250.00000000     250.00000000
       250.00000000     250.00000000     250.00000000     250.00000000     250.00000000     250.00000000     250.00000000     250.00000000     250.00000000     250.00000000     250.00000000     250.00000000     250.00000000     250.00000000
  top
    OPEN/CLOSE  '.\external\top.dat'  FACTOR  1.0
  botm  LAYERED
    OPEN/CLOSE  '.\external\bot_00.dat'  FACTOR  1.0
    OPEN/CLOSE  '.\external\bot_01.dat'  FACTOR  1.0
    OPEN/CLOSE  '.\external\bot_02.dat'  FACTOR  1.0
    OPEN/CLOSE  '.\external\bot_03.dat'  FACTOR  1.0
    OPEN/CLOSE  '.\external\bot_04.dat'  FACTOR  1.0
    OPEN/CLOSE  '.\external\bot_05.dat'  FACTOR  1.0
    OPEN/CLOSE  '.\external\bot_06.dat'  FACTOR  1.0
    OPEN/CLOSE  '.\external\bot_07.dat'  FACTOR  1.0
    OPEN/CLOSE  '.\external\bot_08.dat'  FACTOR  1.0
    OPEN/CLOSE  '.\external\bot_09.dat'  FACTOR  1.0
    OPEN/CLOSE  '.\external\bot_10.dat'  FACTOR  1.0
    OPEN/CLOSE  '.\external\bot_11.dat'  FACTOR  1.0
    OPEN/CLOSE  '.\external\bot_12.dat'  FACTOR  1.0
    OPEN/CLOSE  '.\external\bot_13.dat'  FACTOR  1.0
    OPEN/CLOSE  '.\external\bot_14.dat'  FACTOR  1.0
    OPEN/CLOSE  '.\external\bot_15.dat'  FACTOR  1.0
    OPEN/CLOSE  '.\external\bot_16.dat'  FACTOR  1.0
    OPEN/CLOSE  '.\external\bot_17.dat'  FACTOR  1.0
    OPEN/CLOSE  '.\external\bot_18.dat'  FACTOR  1.0
    OPEN/CLOSE  '.\external\bot_19.dat'  FACTOR  1.0
  idomain  LAYERED
    OPEN/CLOSE  '.\external\idom_00.dat'  FACTOR  1
    OPEN/CLOSE  '.\external\idom_01.dat'  FACTOR  1
    OPEN/CLOSE  '.\external\idom_02.dat'  FACTOR  1
    OPEN/CLOSE  '.\external\idom_03.dat'  FACTOR  1
    OPEN/CLOSE  '.\external\idom_04.dat'  FACTOR  1
    OPEN/CLOSE  '.\external\idom_05.dat'  FACTOR  1
    OPEN/CLOSE  '.\external\idom_06.dat'  FACTOR  1
    OPEN/CLOSE  '.\external\idom_07.dat'  FACTOR  1
    OPEN/CLOSE  '.\external\idom_08.dat'  FACTOR  1
    OPEN/CLOSE  '.\external\idom_09.dat'  FACTOR  1
    OPEN/CLOSE  '.\external\idom_10.dat'  FACTOR  1
    OPEN/CLOSE  '.\external\idom_11.dat'  FACTOR  1
    OPEN/CLOSE  '.\external\idom_12.dat'  FACTOR  1
    OPEN/CLOSE  '.\external\idom_13.dat'  FACTOR  1
    OPEN/CLOSE  '.\external\idom_14.dat'  FACTOR  1
    OPEN/CLOSE  '.\external\idom_15.dat'  FACTOR  1
    OPEN/CLOSE  '.\external\idom_16.dat'  FACTOR  1
    OPEN/CLOSE  '.\external\idom_17.dat'  FACTOR  1
    OPEN/CLOSE  '.\external\idom_18.dat'  FACTOR  1
    OPEN/CLOSE  '.\external\idom_19.dat'  FACTOR  1
END griddata

