# File generated by Flopy version 3.9.1 on 07/24/2025 at 10:06:53.
BEGIN options
  auxiliary  salinity
  BOUNDNAMES
  SAVE_FLOWS
END options

BEGIN dimensions
  MAXBOUND  1462
END dimensions

BEGIN period  1
    OPEN/CLOSE  './external/chd_coastal.dat'
END period  1

