# File generated by Flopy version 3.9.1 on 07/24/2025 at 10:06:54.
BEGIN options
  SCHEME  upstream
END options

