# gwf model version 0+unknown
# File generated by Flopy version 3.9.1 on 07/21/2025 at 12:27:15.
# via modflow-setup version 0.6.0 at 2025-07-21 12:27:50
BEGIN options
  TIME_UNITS  days
  START_DATE_TIME  2017-01-01
END options

BEGIN dimensions
  NPER  366
END dimensions

BEGIN perioddata
  # perlen nstp tsmult
  365.00000000  3       1.30000000  # period 1: 2017-01-01 to 2018-01-01
  1.00000000  1       1.00000000  # period 2: 2018-01-01 to 2018-01-02
  1.00000000  1       1.00000000  # period 3: 2018-01-02 to 2018-01-03
  1.00000000  1       1.00000000  # period 4: 2018-01-03 to 2018-01-04
  1.00000000  1       1.00000000  # period 5: 2018-01-04 to 2018-01-05
  1.00000000  1       1.00000000  # period 6: 2018-01-05 to 2018-01-06
  1.00000000  1       1.00000000  # period 7: 2018-01-06 to 2018-01-07
  1.00000000  1       1.00000000  # period 8: 2018-01-07 to 2018-01-08
  1.00000000  1       1.00000000  # period 9: 2018-01-08 to 2018-01-09
  1.00000000  1       1.00000000  # period 10: 2018-01-09 to 2018-01-10
  1.00000000  1       1.00000000  # period 11: 2018-01-10 to 2018-01-11
  1.00000000  1       1.00000000  # period 12: 2018-01-11 to 2018-01-12
  1.00000000  1       1.00000000  # period 13: 2018-01-12 to 2018-01-13
  1.00000000  1       1.00000000  # period 14: 2018-01-13 to 2018-01-14
  1.00000000  1       1.00000000  # period 15: 2018-01-14 to 2018-01-15
  1.00000000  1       1.00000000  # period 16: 2018-01-15 to 2018-01-16
  1.00000000  1       1.00000000  # period 17: 2018-01-16 to 2018-01-17
  1.00000000  1       1.00000000  # period 18: 2018-01-17 to 2018-01-18
  1.00000000  1       1.00000000  # period 19: 2018-01-18 to 2018-01-19
  1.00000000  1       1.00000000  # period 20: 2018-01-19 to 2018-01-20
  1.00000000  1       1.00000000  # period 21: 2018-01-20 to 2018-01-21
  1.00000000  1       1.00000000  # period 22: 2018-01-21 to 2018-01-22
  1.00000000  1       1.00000000  # period 23: 2018-01-22 to 2018-01-23
  1.00000000  1       1.00000000  # period 24: 2018-01-23 to 2018-01-24
  1.00000000  1       1.00000000  # period 25: 2018-01-24 to 2018-01-25
  1.00000000  1       1.00000000  # period 26: 2018-01-25 to 2018-01-26
  1.00000000  1       1.00000000  # period 27: 2018-01-26 to 2018-01-27
  1.00000000  1       1.00000000  # period 28: 2018-01-27 to 2018-01-28
  1.00000000  1       1.00000000  # period 29: 2018-01-28 to 2018-01-29
  1.00000000  1       1.00000000  # period 30: 2018-01-29 to 2018-01-30
  1.00000000  1       1.00000000  # period 31: 2018-01-30 to 2018-01-31
  1.00000000  1       1.00000000  # period 32: 2018-01-31 to 2018-02-01
  1.00000000  1       1.00000000  # period 33: 2018-02-01 to 2018-02-02
  1.00000000  1       1.00000000  # period 34: 2018-02-02 to 2018-02-03
  1.00000000  1       1.00000000  # period 35: 2018-02-03 to 2018-02-04
  1.00000000  1       1.00000000  # period 36: 2018-02-04 to 2018-02-05
  1.00000000  1       1.00000000  # period 37: 2018-02-05 to 2018-02-06
  1.00000000  1       1.00000000  # period 38: 2018-02-06 to 2018-02-07
  1.00000000  1       1.00000000  # period 39: 2018-02-07 to 2018-02-08
  1.00000000  1       1.00000000  # period 40: 2018-02-08 to 2018-02-09
  1.00000000  1       1.00000000  # period 41: 2018-02-09 to 2018-02-10
  1.00000000  1       1.00000000  # period 42: 2018-02-10 to 2018-02-11
  1.00000000  1       1.00000000  # period 43: 2018-02-11 to 2018-02-12
  1.00000000  1       1.00000000  # period 44: 2018-02-12 to 2018-02-13
  1.00000000  1       1.00000000  # period 45: 2018-02-13 to 2018-02-14
  1.00000000  1       1.00000000  # period 46: 2018-02-14 to 2018-02-15
  1.00000000  1       1.00000000  # period 47: 2018-02-15 to 2018-02-16
  1.00000000  1       1.00000000  # period 48: 2018-02-16 to 2018-02-17
  1.00000000  1       1.00000000  # period 49: 2018-02-17 to 2018-02-18
  1.00000000  1       1.00000000  # period 50: 2018-02-18 to 2018-02-19
  1.00000000  1       1.00000000  # period 51: 2018-02-19 to 2018-02-20
  1.00000000  1       1.00000000  # period 52: 2018-02-20 to 2018-02-21
  1.00000000  1       1.00000000  # period 53: 2018-02-21 to 2018-02-22
  1.00000000  1       1.00000000  # period 54: 2018-02-22 to 2018-02-23
  1.00000000  1       1.00000000  # period 55: 2018-02-23 to 2018-02-24
  1.00000000  1       1.00000000  # period 56: 2018-02-24 to 2018-02-25
  1.00000000  1       1.00000000  # period 57: 2018-02-25 to 2018-02-26
  1.00000000  1       1.00000000  # period 58: 2018-02-26 to 2018-02-27
  1.00000000  1       1.00000000  # period 59: 2018-02-27 to 2018-02-28
  1.00000000  1       1.00000000  # period 60: 2018-02-28 to 2018-03-01
  1.00000000  1       1.00000000  # period 61: 2018-03-01 to 2018-03-02
  1.00000000  1       1.00000000  # period 62: 2018-03-02 to 2018-03-03
  1.00000000  1       1.00000000  # period 63: 2018-03-03 to 2018-03-04
  1.00000000  1       1.00000000  # period 64: 2018-03-04 to 2018-03-05
  1.00000000  1       1.00000000  # period 65: 2018-03-05 to 2018-03-06
  1.00000000  1       1.00000000  # period 66: 2018-03-06 to 2018-03-07
  1.00000000  1       1.00000000  # period 67: 2018-03-07 to 2018-03-08
  1.00000000  1       1.00000000  # period 68: 2018-03-08 to 2018-03-09
  1.00000000  1       1.00000000  # period 69: 2018-03-09 to 2018-03-10
  1.00000000  1       1.00000000  # period 70: 2018-03-10 to 2018-03-11
  1.00000000  1       1.00000000  # period 71: 2018-03-11 to 2018-03-12
  1.00000000  1       1.00000000  # period 72: 2018-03-12 to 2018-03-13
  1.00000000  1       1.00000000  # period 73: 2018-03-13 to 2018-03-14
  1.00000000  1       1.00000000  # period 74: 2018-03-14 to 2018-03-15
  1.00000000  1       1.00000000  # period 75: 2018-03-15 to 2018-03-16
  1.00000000  1       1.00000000  # period 76: 2018-03-16 to 2018-03-17
  1.00000000  1       1.00000000  # period 77: 2018-03-17 to 2018-03-18
  1.00000000  1       1.00000000  # period 78: 2018-03-18 to 2018-03-19
  1.00000000  1       1.00000000  # period 79: 2018-03-19 to 2018-03-20
  1.00000000  1       1.00000000  # period 80: 2018-03-20 to 2018-03-21
  1.00000000  1       1.00000000  # period 81: 2018-03-21 to 2018-03-22
  1.00000000  1       1.00000000  # period 82: 2018-03-22 to 2018-03-23
  1.00000000  1       1.00000000  # period 83: 2018-03-23 to 2018-03-24
  1.00000000  1       1.00000000  # period 84: 2018-03-24 to 2018-03-25
  1.00000000  1       1.00000000  # period 85: 2018-03-25 to 2018-03-26
  1.00000000  1       1.00000000  # period 86: 2018-03-26 to 2018-03-27
  1.00000000  1       1.00000000  # period 87: 2018-03-27 to 2018-03-28
  1.00000000  1       1.00000000  # period 88: 2018-03-28 to 2018-03-29
  1.00000000  1       1.00000000  # period 89: 2018-03-29 to 2018-03-30
  1.00000000  1       1.00000000  # period 90: 2018-03-30 to 2018-03-31
  1.00000000  1       1.00000000  # period 91: 2018-03-31 to 2018-04-01
  1.00000000  1       1.00000000  # period 92: 2018-04-01 to 2018-04-02
  1.00000000  1       1.00000000  # period 93: 2018-04-02 to 2018-04-03
  1.00000000  1       1.00000000  # period 94: 2018-04-03 to 2018-04-04
  1.00000000  1       1.00000000  # period 95: 2018-04-04 to 2018-04-05
  1.00000000  1       1.00000000  # period 96: 2018-04-05 to 2018-04-06
  1.00000000  1       1.00000000  # period 97: 2018-04-06 to 2018-04-07
  1.00000000  1       1.00000000  # period 98: 2018-04-07 to 2018-04-08
  1.00000000  1       1.00000000  # period 99: 2018-04-08 to 2018-04-09
  1.00000000  1       1.00000000  # period 100: 2018-04-09 to 2018-04-10
  1.00000000  1       1.00000000  # period 101: 2018-04-10 to 2018-04-11
  1.00000000  1       1.00000000  # period 102: 2018-04-11 to 2018-04-12
  1.00000000  1       1.00000000  # period 103: 2018-04-12 to 2018-04-13
  1.00000000  1       1.00000000  # period 104: 2018-04-13 to 2018-04-14
  1.00000000  1       1.00000000  # period 105: 2018-04-14 to 2018-04-15
  1.00000000  1       1.00000000  # period 106: 2018-04-15 to 2018-04-16
  1.00000000  1       1.00000000  # period 107: 2018-04-16 to 2018-04-17
  1.00000000  1       1.00000000  # period 108: 2018-04-17 to 2018-04-18
  1.00000000  1       1.00000000  # period 109: 2018-04-18 to 2018-04-19
  1.00000000  1       1.00000000  # period 110: 2018-04-19 to 2018-04-20
  1.00000000  1       1.00000000  # period 111: 2018-04-20 to 2018-04-21
  1.00000000  1       1.00000000  # period 112: 2018-04-21 to 2018-04-22
  1.00000000  1       1.00000000  # period 113: 2018-04-22 to 2018-04-23
  1.00000000  1       1.00000000  # period 114: 2018-04-23 to 2018-04-24
  1.00000000  1       1.00000000  # period 115: 2018-04-24 to 2018-04-25
  1.00000000  1       1.00000000  # period 116: 2018-04-25 to 2018-04-26
  1.00000000  1       1.00000000  # period 117: 2018-04-26 to 2018-04-27
  1.00000000  1       1.00000000  # period 118: 2018-04-27 to 2018-04-28
  1.00000000  1       1.00000000  # period 119: 2018-04-28 to 2018-04-29
  1.00000000  1       1.00000000  # period 120: 2018-04-29 to 2018-04-30
  1.00000000  1       1.00000000  # period 121: 2018-04-30 to 2018-05-01
  1.00000000  1       1.00000000  # period 122: 2018-05-01 to 2018-05-02
  1.00000000  1       1.00000000  # period 123: 2018-05-02 to 2018-05-03
  1.00000000  1       1.00000000  # period 124: 2018-05-03 to 2018-05-04
  1.00000000  1       1.00000000  # period 125: 2018-05-04 to 2018-05-05
  1.00000000  1       1.00000000  # period 126: 2018-05-05 to 2018-05-06
  1.00000000  1       1.00000000  # period 127: 2018-05-06 to 2018-05-07
  1.00000000  1       1.00000000  # period 128: 2018-05-07 to 2018-05-08
  1.00000000  1       1.00000000  # period 129: 2018-05-08 to 2018-05-09
  1.00000000  1       1.00000000  # period 130: 2018-05-09 to 2018-05-10
  1.00000000  1       1.00000000  # period 131: 2018-05-10 to 2018-05-11
  1.00000000  1       1.00000000  # period 132: 2018-05-11 to 2018-05-12
  1.00000000  1       1.00000000  # period 133: 2018-05-12 to 2018-05-13
  1.00000000  1       1.00000000  # period 134: 2018-05-13 to 2018-05-14
  1.00000000  1       1.00000000  # period 135: 2018-05-14 to 2018-05-15
  1.00000000  1       1.00000000  # period 136: 2018-05-15 to 2018-05-16
  1.00000000  1       1.00000000  # period 137: 2018-05-16 to 2018-05-17
  1.00000000  1       1.00000000  # period 138: 2018-05-17 to 2018-05-18
  1.00000000  1       1.00000000  # period 139: 2018-05-18 to 2018-05-19
  1.00000000  1       1.00000000  # period 140: 2018-05-19 to 2018-05-20
  1.00000000  1       1.00000000  # period 141: 2018-05-20 to 2018-05-21
  1.00000000  1       1.00000000  # period 142: 2018-05-21 to 2018-05-22
  1.00000000  1       1.00000000  # period 143: 2018-05-22 to 2018-05-23
  1.00000000  1       1.00000000  # period 144: 2018-05-23 to 2018-05-24
  1.00000000  1       1.00000000  # period 145: 2018-05-24 to 2018-05-25
  1.00000000  1       1.00000000  # period 146: 2018-05-25 to 2018-05-26
  1.00000000  1       1.00000000  # period 147: 2018-05-26 to 2018-05-27
  1.00000000  1       1.00000000  # period 148: 2018-05-27 to 2018-05-28
  1.00000000  1       1.00000000  # period 149: 2018-05-28 to 2018-05-29
  1.00000000  1       1.00000000  # period 150: 2018-05-29 to 2018-05-30
  1.00000000  1       1.00000000  # period 151: 2018-05-30 to 2018-05-31
  1.00000000  1       1.00000000  # period 152: 2018-05-31 to 2018-06-01
  1.00000000  1       1.00000000  # period 153: 2018-06-01 to 2018-06-02
  1.00000000  1       1.00000000  # period 154: 2018-06-02 to 2018-06-03
  1.00000000  1       1.00000000  # period 155: 2018-06-03 to 2018-06-04
  1.00000000  1       1.00000000  # period 156: 2018-06-04 to 2018-06-05
  1.00000000  1       1.00000000  # period 157: 2018-06-05 to 2018-06-06
  1.00000000  1       1.00000000  # period 158: 2018-06-06 to 2018-06-07
  1.00000000  1       1.00000000  # period 159: 2018-06-07 to 2018-06-08
  1.00000000  1       1.00000000  # period 160: 2018-06-08 to 2018-06-09
  1.00000000  1       1.00000000  # period 161: 2018-06-09 to 2018-06-10
  1.00000000  1       1.00000000  # period 162: 2018-06-10 to 2018-06-11
  1.00000000  1       1.00000000  # period 163: 2018-06-11 to 2018-06-12
  1.00000000  1       1.00000000  # period 164: 2018-06-12 to 2018-06-13
  1.00000000  1       1.00000000  # period 165: 2018-06-13 to 2018-06-14
  1.00000000  1       1.00000000  # period 166: 2018-06-14 to 2018-06-15
  1.00000000  1       1.00000000  # period 167: 2018-06-15 to 2018-06-16
  1.00000000  1       1.00000000  # period 168: 2018-06-16 to 2018-06-17
  1.00000000  1       1.00000000  # period 169: 2018-06-17 to 2018-06-18
  1.00000000  1       1.00000000  # period 170: 2018-06-18 to 2018-06-19
  1.00000000  1       1.00000000  # period 171: 2018-06-19 to 2018-06-20
  1.00000000  1       1.00000000  # period 172: 2018-06-20 to 2018-06-21
  1.00000000  1       1.00000000  # period 173: 2018-06-21 to 2018-06-22
  1.00000000  1       1.00000000  # period 174: 2018-06-22 to 2018-06-23
  1.00000000  1       1.00000000  # period 175: 2018-06-23 to 2018-06-24
  1.00000000  1       1.00000000  # period 176: 2018-06-24 to 2018-06-25
  1.00000000  1       1.00000000  # period 177: 2018-06-25 to 2018-06-26
  1.00000000  1       1.00000000  # period 178: 2018-06-26 to 2018-06-27
  1.00000000  1       1.00000000  # period 179: 2018-06-27 to 2018-06-28
  1.00000000  1       1.00000000  # period 180: 2018-06-28 to 2018-06-29
  1.00000000  1       1.00000000  # period 181: 2018-06-29 to 2018-06-30
  1.00000000  1       1.00000000  # period 182: 2018-06-30 to 2018-07-01
  1.00000000  1       1.00000000  # period 183: 2018-07-01 to 2018-07-02
  1.00000000  1       1.00000000  # period 184: 2018-07-02 to 2018-07-03
  1.00000000  1       1.00000000  # period 185: 2018-07-03 to 2018-07-04
  1.00000000  1       1.00000000  # period 186: 2018-07-04 to 2018-07-05
  1.00000000  1       1.00000000  # period 187: 2018-07-05 to 2018-07-06
  1.00000000  1       1.00000000  # period 188: 2018-07-06 to 2018-07-07
  1.00000000  1       1.00000000  # period 189: 2018-07-07 to 2018-07-08
  1.00000000  1       1.00000000  # period 190: 2018-07-08 to 2018-07-09
  1.00000000  1       1.00000000  # period 191: 2018-07-09 to 2018-07-10
  1.00000000  1       1.00000000  # period 192: 2018-07-10 to 2018-07-11
  1.00000000  1       1.00000000  # period 193: 2018-07-11 to 2018-07-12
  1.00000000  1       1.00000000  # period 194: 2018-07-12 to 2018-07-13
  1.00000000  1       1.00000000  # period 195: 2018-07-13 to 2018-07-14
  1.00000000  1       1.00000000  # period 196: 2018-07-14 to 2018-07-15
  1.00000000  1       1.00000000  # period 197: 2018-07-15 to 2018-07-16
  1.00000000  1       1.00000000  # period 198: 2018-07-16 to 2018-07-17
  1.00000000  1       1.00000000  # period 199: 2018-07-17 to 2018-07-18
  1.00000000  1       1.00000000  # period 200: 2018-07-18 to 2018-07-19
  1.00000000  1       1.00000000  # period 201: 2018-07-19 to 2018-07-20
  1.00000000  1       1.00000000  # period 202: 2018-07-20 to 2018-07-21
  1.00000000  1       1.00000000  # period 203: 2018-07-21 to 2018-07-22
  1.00000000  1       1.00000000  # period 204: 2018-07-22 to 2018-07-23
  1.00000000  1       1.00000000  # period 205: 2018-07-23 to 2018-07-24
  1.00000000  1       1.00000000  # period 206: 2018-07-24 to 2018-07-25
  1.00000000  1       1.00000000  # period 207: 2018-07-25 to 2018-07-26
  1.00000000  1       1.00000000  # period 208: 2018-07-26 to 2018-07-27
  1.00000000  1       1.00000000  # period 209: 2018-07-27 to 2018-07-28
  1.00000000  1       1.00000000  # period 210: 2018-07-28 to 2018-07-29
  1.00000000  1       1.00000000  # period 211: 2018-07-29 to 2018-07-30
  1.00000000  1       1.00000000  # period 212: 2018-07-30 to 2018-07-31
  1.00000000  1       1.00000000  # period 213: 2018-07-31 to 2018-08-01
  1.00000000  1       1.00000000  # period 214: 2018-08-01 to 2018-08-02
  1.00000000  1       1.00000000  # period 215: 2018-08-02 to 2018-08-03
  1.00000000  1       1.00000000  # period 216: 2018-08-03 to 2018-08-04
  1.00000000  1       1.00000000  # period 217: 2018-08-04 to 2018-08-05
  1.00000000  1       1.00000000  # period 218: 2018-08-05 to 2018-08-06
  1.00000000  1       1.00000000  # period 219: 2018-08-06 to 2018-08-07
  1.00000000  1       1.00000000  # period 220: 2018-08-07 to 2018-08-08
  1.00000000  1       1.00000000  # period 221: 2018-08-08 to 2018-08-09
  1.00000000  1       1.00000000  # period 222: 2018-08-09 to 2018-08-10
  1.00000000  1       1.00000000  # period 223: 2018-08-10 to 2018-08-11
  1.00000000  1       1.00000000  # period 224: 2018-08-11 to 2018-08-12
  1.00000000  1       1.00000000  # period 225: 2018-08-12 to 2018-08-13
  1.00000000  1       1.00000000  # period 226: 2018-08-13 to 2018-08-14
  1.00000000  1       1.00000000  # period 227: 2018-08-14 to 2018-08-15
  1.00000000  1       1.00000000  # period 228: 2018-08-15 to 2018-08-16
  1.00000000  1       1.00000000  # period 229: 2018-08-16 to 2018-08-17
  1.00000000  1       1.00000000  # period 230: 2018-08-17 to 2018-08-18
  1.00000000  1       1.00000000  # period 231: 2018-08-18 to 2018-08-19
  1.00000000  1       1.00000000  # period 232: 2018-08-19 to 2018-08-20
  1.00000000  1       1.00000000  # period 233: 2018-08-20 to 2018-08-21
  1.00000000  1       1.00000000  # period 234: 2018-08-21 to 2018-08-22
  1.00000000  1       1.00000000  # period 235: 2018-08-22 to 2018-08-23
  1.00000000  1       1.00000000  # period 236: 2018-08-23 to 2018-08-24
  1.00000000  1       1.00000000  # period 237: 2018-08-24 to 2018-08-25
  1.00000000  1       1.00000000  # period 238: 2018-08-25 to 2018-08-26
  1.00000000  1       1.00000000  # period 239: 2018-08-26 to 2018-08-27
  1.00000000  1       1.00000000  # period 240: 2018-08-27 to 2018-08-28
  1.00000000  1       1.00000000  # period 241: 2018-08-28 to 2018-08-29
  1.00000000  1       1.00000000  # period 242: 2018-08-29 to 2018-08-30
  1.00000000  1       1.00000000  # period 243: 2018-08-30 to 2018-08-31
  1.00000000  1       1.00000000  # period 244: 2018-08-31 to 2018-09-01
  1.00000000  1       1.00000000  # period 245: 2018-09-01 to 2018-09-02
  1.00000000  1       1.00000000  # period 246: 2018-09-02 to 2018-09-03
  1.00000000  1       1.00000000  # period 247: 2018-09-03 to 2018-09-04
  1.00000000  1       1.00000000  # period 248: 2018-09-04 to 2018-09-05
  1.00000000  1       1.00000000  # period 249: 2018-09-05 to 2018-09-06
  1.00000000  1       1.00000000  # period 250: 2018-09-06 to 2018-09-07
  1.00000000  1       1.00000000  # period 251: 2018-09-07 to 2018-09-08
  1.00000000  1       1.00000000  # period 252: 2018-09-08 to 2018-09-09
  1.00000000  1       1.00000000  # period 253: 2018-09-09 to 2018-09-10
  1.00000000  1       1.00000000  # period 254: 2018-09-10 to 2018-09-11
  1.00000000  1       1.00000000  # period 255: 2018-09-11 to 2018-09-12
  1.00000000  1       1.00000000  # period 256: 2018-09-12 to 2018-09-13
  1.00000000  1       1.00000000  # period 257: 2018-09-13 to 2018-09-14
  1.00000000  1       1.00000000  # period 258: 2018-09-14 to 2018-09-15
  1.00000000  1       1.00000000  # period 259: 2018-09-15 to 2018-09-16
  1.00000000  1       1.00000000  # period 260: 2018-09-16 to 2018-09-17
  1.00000000  1       1.00000000  # period 261: 2018-09-17 to 2018-09-18
  1.00000000  1       1.00000000  # period 262: 2018-09-18 to 2018-09-19
  1.00000000  1       1.00000000  # period 263: 2018-09-19 to 2018-09-20
  1.00000000  1       1.00000000  # period 264: 2018-09-20 to 2018-09-21
  1.00000000  1       1.00000000  # period 265: 2018-09-21 to 2018-09-22
  1.00000000  1       1.00000000  # period 266: 2018-09-22 to 2018-09-23
  1.00000000  1       1.00000000  # period 267: 2018-09-23 to 2018-09-24
  1.00000000  1       1.00000000  # period 268: 2018-09-24 to 2018-09-25
  1.00000000  1       1.00000000  # period 269: 2018-09-25 to 2018-09-26
  1.00000000  1       1.00000000  # period 270: 2018-09-26 to 2018-09-27
  1.00000000  1       1.00000000  # period 271: 2018-09-27 to 2018-09-28
  1.00000000  1       1.00000000  # period 272: 2018-09-28 to 2018-09-29
  1.00000000  1       1.00000000  # period 273: 2018-09-29 to 2018-09-30
  1.00000000  1       1.00000000  # period 274: 2018-09-30 to 2018-10-01
  1.00000000  1       1.00000000  # period 275: 2018-10-01 to 2018-10-02
  1.00000000  1       1.00000000  # period 276: 2018-10-02 to 2018-10-03
  1.00000000  1       1.00000000  # period 277: 2018-10-03 to 2018-10-04
  1.00000000  1       1.00000000  # period 278: 2018-10-04 to 2018-10-05
  1.00000000  1       1.00000000  # period 279: 2018-10-05 to 2018-10-06
  1.00000000  1       1.00000000  # period 280: 2018-10-06 to 2018-10-07
  1.00000000  1       1.00000000  # period 281: 2018-10-07 to 2018-10-08
  1.00000000  1       1.00000000  # period 282: 2018-10-08 to 2018-10-09
  1.00000000  1       1.00000000  # period 283: 2018-10-09 to 2018-10-10
  1.00000000  1       1.00000000  # period 284: 2018-10-10 to 2018-10-11
  1.00000000  1       1.00000000  # period 285: 2018-10-11 to 2018-10-12
  1.00000000  1       1.00000000  # period 286: 2018-10-12 to 2018-10-13
  1.00000000  1       1.00000000  # period 287: 2018-10-13 to 2018-10-14
  1.00000000  1       1.00000000  # period 288: 2018-10-14 to 2018-10-15
  1.00000000  1       1.00000000  # period 289: 2018-10-15 to 2018-10-16
  1.00000000  1       1.00000000  # period 290: 2018-10-16 to 2018-10-17
  1.00000000  1       1.00000000  # period 291: 2018-10-17 to 2018-10-18
  1.00000000  1       1.00000000  # period 292: 2018-10-18 to 2018-10-19
  1.00000000  1       1.00000000  # period 293: 2018-10-19 to 2018-10-20
  1.00000000  1       1.00000000  # period 294: 2018-10-20 to 2018-10-21
  1.00000000  1       1.00000000  # period 295: 2018-10-21 to 2018-10-22
  1.00000000  1       1.00000000  # period 296: 2018-10-22 to 2018-10-23
  1.00000000  1       1.00000000  # period 297: 2018-10-23 to 2018-10-24
  1.00000000  1       1.00000000  # period 298: 2018-10-24 to 2018-10-25
  1.00000000  1       1.00000000  # period 299: 2018-10-25 to 2018-10-26
  1.00000000  1       1.00000000  # period 300: 2018-10-26 to 2018-10-27
  1.00000000  1       1.00000000  # period 301: 2018-10-27 to 2018-10-28
  1.00000000  1       1.00000000  # period 302: 2018-10-28 to 2018-10-29
  1.00000000  1       1.00000000  # period 303: 2018-10-29 to 2018-10-30
  1.00000000  1       1.00000000  # period 304: 2018-10-30 to 2018-10-31
  1.00000000  1       1.00000000  # period 305: 2018-10-31 to 2018-11-01
  1.00000000  1       1.00000000  # period 306: 2018-11-01 to 2018-11-02
  1.00000000  1       1.00000000  # period 307: 2018-11-02 to 2018-11-03
  1.00000000  1       1.00000000  # period 308: 2018-11-03 to 2018-11-04
  1.00000000  1       1.00000000  # period 309: 2018-11-04 to 2018-11-05
  1.00000000  1       1.00000000  # period 310: 2018-11-05 to 2018-11-06
  1.00000000  1       1.00000000  # period 311: 2018-11-06 to 2018-11-07
  1.00000000  1       1.00000000  # period 312: 2018-11-07 to 2018-11-08
  1.00000000  1       1.00000000  # period 313: 2018-11-08 to 2018-11-09
  1.00000000  1       1.00000000  # period 314: 2018-11-09 to 2018-11-10
  1.00000000  1       1.00000000  # period 315: 2018-11-10 to 2018-11-11
  1.00000000  1       1.00000000  # period 316: 2018-11-11 to 2018-11-12
  1.00000000  1       1.00000000  # period 317: 2018-11-12 to 2018-11-13
  1.00000000  1       1.00000000  # period 318: 2018-11-13 to 2018-11-14
  1.00000000  1       1.00000000  # period 319: 2018-11-14 to 2018-11-15
  1.00000000  1       1.00000000  # period 320: 2018-11-15 to 2018-11-16
  1.00000000  1       1.00000000  # period 321: 2018-11-16 to 2018-11-17
  1.00000000  1       1.00000000  # period 322: 2018-11-17 to 2018-11-18
  1.00000000  1       1.00000000  # period 323: 2018-11-18 to 2018-11-19
  1.00000000  1       1.00000000  # period 324: 2018-11-19 to 2018-11-20
  1.00000000  1       1.00000000  # period 325: 2018-11-20 to 2018-11-21
  1.00000000  1       1.00000000  # period 326: 2018-11-21 to 2018-11-22
  1.00000000  1       1.00000000  # period 327: 2018-11-22 to 2018-11-23
  1.00000000  1       1.00000000  # period 328: 2018-11-23 to 2018-11-24
  1.00000000  1       1.00000000  # period 329: 2018-11-24 to 2018-11-25
  1.00000000  1       1.00000000  # period 330: 2018-11-25 to 2018-11-26
  1.00000000  1       1.00000000  # period 331: 2018-11-26 to 2018-11-27
  1.00000000  1       1.00000000  # period 332: 2018-11-27 to 2018-11-28
  1.00000000  1       1.00000000  # period 333: 2018-11-28 to 2018-11-29
  1.00000000  1       1.00000000  # period 334: 2018-11-29 to 2018-11-30
  1.00000000  1       1.00000000  # period 335: 2018-11-30 to 2018-12-01
  1.00000000  1       1.00000000  # period 336: 2018-12-01 to 2018-12-02
  1.00000000  1       1.00000000  # period 337: 2018-12-02 to 2018-12-03
  1.00000000  1       1.00000000  # period 338: 2018-12-03 to 2018-12-04
  1.00000000  1       1.00000000  # period 339: 2018-12-04 to 2018-12-05
  1.00000000  1       1.00000000  # period 340: 2018-12-05 to 2018-12-06
  1.00000000  1       1.00000000  # period 341: 2018-12-06 to 2018-12-07
  1.00000000  1       1.00000000  # period 342: 2018-12-07 to 2018-12-08
  1.00000000  1       1.00000000  # period 343: 2018-12-08 to 2018-12-09
  1.00000000  1       1.00000000  # period 344: 2018-12-09 to 2018-12-10
  1.00000000  1       1.00000000  # period 345: 2018-12-10 to 2018-12-11
  1.00000000  1       1.00000000  # period 346: 2018-12-11 to 2018-12-12
  1.00000000  1       1.00000000  # period 347: 2018-12-12 to 2018-12-13
  1.00000000  1       1.00000000  # period 348: 2018-12-13 to 2018-12-14
  1.00000000  1       1.00000000  # period 349: 2018-12-14 to 2018-12-15
  1.00000000  1       1.00000000  # period 350: 2018-12-15 to 2018-12-16
  1.00000000  1       1.00000000  # period 351: 2018-12-16 to 2018-12-17
  1.00000000  1       1.00000000  # period 352: 2018-12-17 to 2018-12-18
  1.00000000  1       1.00000000  # period 353: 2018-12-18 to 2018-12-19
  1.00000000  1       1.00000000  # period 354: 2018-12-19 to 2018-12-20
  1.00000000  1       1.00000000  # period 355: 2018-12-20 to 2018-12-21
  1.00000000  1       1.00000000  # period 356: 2018-12-21 to 2018-12-22
  1.00000000  1       1.00000000  # period 357: 2018-12-22 to 2018-12-23
  1.00000000  1       1.00000000  # period 358: 2018-12-23 to 2018-12-24
  1.00000000  1       1.00000000  # period 359: 2018-12-24 to 2018-12-25
  1.00000000  1       1.00000000  # period 360: 2018-12-25 to 2018-12-26
  1.00000000  1       1.00000000  # period 361: 2018-12-26 to 2018-12-27
  1.00000000  1       1.00000000  # period 362: 2018-12-27 to 2018-12-28
  1.00000000  1       1.00000000  # period 363: 2018-12-28 to 2018-12-29
  1.00000000  1       1.00000000  # period 364: 2018-12-29 to 2018-12-30
  1.00000000  1       1.00000000  # period 365: 2018-12-30 to 2018-12-31
  1.00000000  1       1.00000000  # period 366: 2018-12-31 to 2019-01-01
END perioddata

